_i0
     RDKit          3D

 48 50  0  0  0  0  0  0  0  0999 V2000
   -5.5146   -1.7049    2.3705 C   0  0  0  0  0  0  0  0  0  0  0  0
   -4.6463   -0.9220    1.4252 C   0  0  0  0  0  0  0  0  0  0  0  0
   -3.4046   -1.4431    1.0405 C   0  0  0  0  0  0  0  0  0  0  0  0
   -2.5725   -0.7448    0.1595 C   0  0  0  0  0  0  0  0  0  0  0  0
   -2.9439    0.5012   -0.3467 C   0  0  0  0  0  0  0  0  0  0  0  0
   -2.1663    1.2233   -1.2782 N   0  0  0  0  0  0  0  0  0  0  0  0
   -0.7692    1.1883   -1.5145 C   0  0  0  0  0  0  0  0  0  0  0  0
    0.0293    0.5018   -0.6726 N   0  0  0  0  0  0  0  0  0  0  0  0
    1.3416    0.4451   -0.9212 C   0  0  0  0  0  0  0  0  0  0  0  0
    2.0903   -0.2822   -0.0186 N   0  0  0  0  0  0  0  0  0  0  0  0
    3.4633    0.1612    0.1812 C   0  0  0  0  0  0  0  0  0  0  0  0
    4.0717   -0.4885    1.4430 C   0  0  0  0  0  0  0  0  0  0  0  0
    5.4841    0.0072    1.7242 C   0  0  0  0  0  0  0  0  0  0  0  0
    6.3391   -0.9894    0.9823 C   0  0  0  0  0  0  0  0  0  0  0  0
    5.5655   -2.2735    1.1788 C   0  0  0  0  0  0  0  0  0  0  0  0
    4.1805   -1.9161    1.2668 O   0  0  0  0  0  0  0  0  0  0  0  0
    1.9285    1.0440   -1.9650 N   0  0  0  0  0  0  0  0  0  0  0  0
    1.1454    1.7119   -2.8230 C   0  0  0  0  0  0  0  0  0  0  0  0
    1.8345    2.3545   -3.8523 N   0  0  0  0  0  0  0  0  0  0  0  0
   -0.2163    1.8080   -2.6221 C   0  0  0  0  0  0  0  0  0  0  0  0
   -1.0392    2.5358   -3.5437 N   0  0  0  0  0  4  0  0  0  0  0  0
   -0.8815    2.3174   -4.7546 O   0  0  0  0  0  0  0  0  0  0  0  0
   -1.8658    3.3291   -3.0646 O   0  0  0  0  0  1  0  0  0  0  0  0
   -4.2060    1.0022    0.0129 C   0  0  0  0  0  0  0  0  0  0  0  0
   -5.0586    0.3136    0.8961 C   0  0  0  0  0  0  0  0  0  0  0  0
   -6.3904    0.9146    1.2536 C   0  0  0  0  0  0  0  0  0  0  0  0
   -5.7637   -1.1018    3.2494 H   0  0  0  0  0  0  0  0  0  0  0  0
   -5.0077   -2.6076    2.7279 H   0  0  0  0  0  0  0  0  0  0  0  0
   -6.4357   -2.0173    1.8684 H   0  0  0  0  0  0  0  0  0  0  0  0
   -3.0707   -2.4075    1.4174 H   0  0  0  0  0  0  0  0  0  0  0  0
   -1.6322   -1.2058   -0.1290 H   0  0  0  0  0  0  0  0  0  0  0  0
   -2.5349    2.1639   -1.4261 H   0  0  0  0  0  0  0  0  0  0  0  0
    1.5332   -0.4311    0.8149 H   0  0  0  0  0  0  0  0  0  0  0  0
    3.4958    1.2517    0.3016 H   0  0  0  0  0  0  0  0  0  0  0  0
    4.0553   -0.1120   -0.7005 H   0  0  0  0  0  0  0  0  0  0  0  0
    3.4186   -0.2999    2.3028 H   0  0  0  0  0  0  0  0  0  0  0  0
    5.6913   -0.0706    2.7987 H   0  0  0  0  0  0  0  0  0  0  0  0
    5.6606    1.0437    1.4234 H   0  0  0  0  0  0  0  0  0  0  0  0
    6.3770   -0.7318   -0.0823 H   0  0  0  0  0  0  0  0  0  0  0  0
    7.3653   -1.0496    1.3541 H   0  0  0  0  0  0  0  0  0  0  0  0
    5.8439   -2.7631    2.1181 H   0  0  0  0  0  0  0  0  0  0  0  0
    5.7125   -2.9827    0.3595 H   0  0  0  0  0  0  0  0  0  0  0  0
    2.8099    2.0651   -3.8167 H   0  0  0  0  0  0  0  0  0  0  0  0
    1.4206    2.1897   -4.7695 H   0  0  0  0  0  0  0  0  0  0  0  0
   -4.5379    1.9530   -0.3999 H   0  0  0  0  0  0  0  0  0  0  0  0
   -7.2019    0.2325    0.9810 H   0  0  0  0  0  0  0  0  0  0  0  0
   -6.5626    1.8571    0.7230 H   0  0  0  0  0  0  0  0  0  0  0  0
   -6.4352    1.1265    2.3265 H   0  0  0  0  0  0  0  0  0  0  0  0
  1  2  1  0
  2  3  2  0
  3  4  1  0
  4  5  2  0
  5  6  1  0
  6  7  1  0
  7  8  2  0
  8  9  1  0
  9 10  1  0
 10 11  1  0
 11 12  1  0
 12 13  1  0
 13 14  1  0
 14 15  1  0
 15 16  1  0
  9 17  2  0
 17 18  1  0
 18 19  1  0
 18 20  2  0
 20 21  1  0
 21 22  2  0
 21 23  1  0
  5 24  1  0
 24 25  2  0
 25 26  1  0
 25  2  1  0
 20  7  1  0
 16 12  1  0
  1 27  1  0
  1 28  1  0
  1 29  1  0
  3 30  1  0
  4 31  1  0
  6 32  1  0
 10 33  1  0
 11 34  1  0
 11 35  1  0
 12 36  1  0
 13 37  1  0
 13 38  1  0
 14 39  1  0
 14 40  1  0
 15 41  1  0
 15 42  1  0
 19 43  1  0
 19 44  1  0
 24 45  1  0
 26 46  1  0
 26 47  1  0
 26 48  1  0
M  CHG  2  21   1  23  -1
M  END
>  <ScrubInfo>  (1) 
{"isomerGroup": 0, "isomerId": 0, "confId": 0, "nr_conformers:": 1, "nr_isomers:": 9}

$$$$
_i1
     RDKit          3D

 48 50  0  0  0  0  0  0  0  0999 V2000
    0.8330    0.1378   -0.3731 N   0  0  0  0  0  0  0  0  0  0  0  0
    1.7939    0.4726    0.5221 C   0  0  0  0  0  0  0  0  0  0  0  0
    3.0694    0.0976    0.2318 N   0  0  0  0  0  0  0  0  0  0  0  0
    3.4305   -1.2267   -0.2672 C   0  0  0  0  0  0  0  0  0  0  0  0
    4.9551   -1.3697   -0.3597 C   0  0  0  0  0  0  0  0  0  0  0  0
    5.6203   -0.4583   -1.3798 C   0  0  0  0  0  0  0  0  0  0  0  0
    7.0192   -0.3577   -0.8243 C   0  0  0  0  0  0  0  0  0  0  0  0
    6.7634   -0.3090    0.6671 C   0  0  0  0  0  0  0  0  0  0  0  0
    5.5670   -1.0657    0.9123 O   0  0  0  0  0  0  0  0  0  0  0  0
    1.5404    1.1307    1.6180 N   0  0  0  0  0  0  0  0  0  0  0  0
    0.2277    1.5249    1.8652 C   0  0  0  0  0  0  0  0  0  0  0  0
    0.0679    2.2627    3.0329 N   0  0  0  0  0  0  0  0  0  0  0  0
   -0.7917    1.2054    1.0229 C   0  0  0  0  0  0  0  0  0  0  0  0
   -2.0801    1.7419    1.3087 N   0  0  0  0  0  4  0  0  0  0  0  0
   -2.4746    2.6846    0.6089 O   0  0  0  0  0  0  0  0  0  0  0  0
   -2.6906    1.2555    2.2745 O   0  0  0  0  0  1  0  0  0  0  0  0
   -0.5033    0.4062   -0.2020 C   0  0  0  0  0  0  0  0  0  0  0  0
   -1.2762   -0.1089   -1.1171 N   0  0  0  0  0  0  0  0  0  0  0  0
   -2.6688   -0.0257   -1.0660 C   0  0  0  0  0  0  0  0  0  0  0  0
   -3.3428    0.8884   -1.8709 C   0  0  0  0  0  0  0  0  0  0  0  0
   -4.7368    0.9552   -1.8469 C   0  0  0  0  0  0  0  0  0  0  0  0
   -5.4824    0.0931   -1.0290 C   0  0  0  0  0  0  0  0  0  0  0  0
   -6.9826    0.2013   -1.0201 C   0  0  0  0  0  0  0  0  0  0  0  0
   -4.8090   -0.8588   -0.2383 C   0  0  0  0  0  0  0  0  0  0  0  0
   -5.5582   -1.8118    0.6515 C   0  0  0  0  0  0  0  0  0  0  0  0
   -3.4055   -0.9120   -0.2753 C   0  0  0  0  0  0  0  0  0  0  0  0
    1.0801   -0.3264   -1.2317 H   0  0  0  0  0  0  0  0  0  0  0  0
    3.6858    0.3536    1.0068 H   0  0  0  0  0  0  0  0  0  0  0  0
    2.9829   -1.4090   -1.2496 H   0  0  0  0  0  0  0  0  0  0  0  0
    3.0448   -1.9750    0.4350 H   0  0  0  0  0  0  0  0  0  0  0  0
    5.2003   -2.4145   -0.5882 H   0  0  0  0  0  0  0  0  0  0  0  0
    5.5855   -0.8639   -2.3948 H   0  0  0  0  0  0  0  0  0  0  0  0
    5.1610    0.5367   -1.3938 H   0  0  0  0  0  0  0  0  0  0  0  0
    7.5852   -1.2621   -1.0775 H   0  0  0  0  0  0  0  0  0  0  0  0
    7.5769    0.5083   -1.1901 H   0  0  0  0  0  0  0  0  0  0  0  0
    6.5817    0.7170    1.0045 H   0  0  0  0  0  0  0  0  0  0  0  0
    7.5893   -0.7273    1.2492 H   0  0  0  0  0  0  0  0  0  0  0  0
    0.8858    2.1207    3.6231 H   0  0  0  0  0  0  0  0  0  0  0  0
   -0.7991    2.0610    3.5312 H   0  0  0  0  0  0  0  0  0  0  0  0
   -2.7818    1.5646   -2.5095 H   0  0  0  0  0  0  0  0  0  0  0  0
   -5.2365    1.6938   -2.4698 H   0  0  0  0  0  0  0  0  0  0  0  0
   -7.3433    0.4124   -0.0085 H   0  0  0  0  0  0  0  0  0  0  0  0
   -7.4324   -0.7283   -1.3827 H   0  0  0  0  0  0  0  0  0  0  0  0
   -7.3311    1.0124   -1.6684 H   0  0  0  0  0  0  0  0  0  0  0  0
   -6.2542   -2.4169    0.0621 H   0  0  0  0  0  0  0  0  0  0  0  0
   -6.1114   -1.2597    1.4179 H   0  0  0  0  0  0  0  0  0  0  0  0
   -4.8792   -2.5005    1.1655 H   0  0  0  0  0  0  0  0  0  0  0  0
   -2.8754   -1.6504    0.3210 H   0  0  0  0  0  0  0  0  0  0  0  0
  1  2  1  0
  2  3  1  0
  3  4  1  0
  4  5  1  0
  5  6  1  0
  6  7  1  0
  7  8  1  0
  8  9  1  0
  2 10  2  0
 10 11  1  0
 11 12  1  0
 11 13  2  0
 13 14  1  0
 14 15  2  0
 14 16  1  0
 13 17  1  0
 17 18  2  3
 18 19  1  0
 19 20  2  0
 20 21  1  0
 21 22  2  0
 22 23  1  0
 22 24  1  0
 24 25  1  0
 24 26  2  0
 17  1  1  0
 26 19  1  0
  9  5  1  0
  1 27  1  0
  3 28  1  0
  4 29  1  0
  4 30  1  0
  5 31  1  0
  6 32  1  0
  6 33  1  0
  7 34  1  0
  7 35  1  0
  8 36  1  0
  8 37  1  0
 12 38  1  0
 12 39  1  0
 20 40  1  0
 21 41  1  0
 23 42  1  0
 23 43  1  0
 23 44  1  0
 25 45  1  0
 25 46  1  0
 25 47  1  0
 26 48  1  0
M  CHG  2  14   1  16  -1
M  END
>  <ScrubInfo>  (2) 
{"isomerGroup": 0, "isomerId": 1, "confId": 0, "nr_conformers:": 1, "nr_isomers:": 9}

$$$$
_i2
     RDKit          3D

 48 50  0  0  0  0  0  0  0  0999 V2000
    0.6627   -1.4236   -0.1016 N   0  0  0  0  0  0  0  0  0  0  0  0
   -0.1663   -2.2875    0.5971 C   0  0  0  0  0  0  0  0  0  0  0  0
   -1.2972   -1.7679    1.2243 N   0  0  0  0  0  0  0  0  0  0  0  0
   -2.1188   -0.7015    0.7948 C   0  0  0  0  0  0  0  0  0  0  0  0
   -2.9290   -0.0705    1.7435 C   0  0  0  0  0  0  0  0  0  0  0  0
   -3.7380    1.0125    1.3919 C   0  0  0  0  0  0  0  0  0  0  0  0
   -3.7602    1.4933    0.0764 C   0  0  0  0  0  0  0  0  0  0  0  0
   -4.6450    2.6598   -0.2682 C   0  0  0  0  0  0  0  0  0  0  0  0
   -2.9557    0.8672   -0.8936 C   0  0  0  0  0  0  0  0  0  0  0  0
   -2.9562    1.3263   -2.3269 C   0  0  0  0  0  0  0  0  0  0  0  0
   -2.1492   -0.2247   -0.5217 C   0  0  0  0  0  0  0  0  0  0  0  0
    0.2543   -3.5742    0.6718 C   0  0  0  0  0  0  0  0  0  0  0  0
   -0.4577   -4.5558    1.4585 N   0  0  0  0  0  4  0  0  0  0  0  0
    0.1612   -5.5738    1.8032 O   0  0  0  0  0  0  0  0  0  0  0  0
   -1.6360   -4.3249    1.7741 O   0  0  0  0  0  1  0  0  0  0  0  0
    1.5045   -3.9540   -0.0669 C   0  0  0  0  0  0  0  0  0  0  0  0
    1.9737   -5.2436   -0.1671 N   0  0  0  0  0  0  0  0  0  0  0  0
    2.2479   -3.0753   -0.6883 N   0  0  0  0  0  0  0  0  0  0  0  0
    1.8568   -1.7614   -0.6728 C   0  0  0  0  0  0  0  0  0  0  0  0
    2.7012   -0.9685   -1.2220 N   0  0  0  0  0  0  0  0  0  0  0  0
    2.4301    0.4679   -1.3153 C   0  0  0  0  0  0  0  0  0  0  0  0
    2.8144    1.2016   -0.0245 C   0  0  0  0  0  0  0  0  0  0  0  0
    2.2712    2.6224    0.0190 C   0  0  0  0  0  0  0  0  0  0  0  0
    3.2333    3.2883    0.9698 C   0  0  0  0  0  0  0  0  0  0  0  0
    4.5478    2.6463    0.5824 C   0  0  0  0  0  0  0  0  0  0  0  0
    4.2434    1.3299    0.1036 O   0  0  0  0  0  0  0  0  0  0  0  0
    0.4323   -0.4481    0.0074 H   0  0  0  0  0  0  0  0  0  0  0  0
   -1.8462   -2.4580    1.7509 H   0  0  0  0  0  0  0  0  0  0  0  0
   -2.9274   -0.4107    2.7767 H   0  0  0  0  0  0  0  0  0  0  0  0
   -4.3524    1.4794    2.1592 H   0  0  0  0  0  0  0  0  0  0  0  0
   -5.2126    3.0051    0.6025 H   0  0  0  0  0  0  0  0  0  0  0  0
   -5.3676    2.3751   -1.0395 H   0  0  0  0  0  0  0  0  0  0  0  0
   -4.0424    3.5015   -0.6239 H   0  0  0  0  0  0  0  0  0  0  0  0
   -2.6797    2.3836   -2.3892 H   0  0  0  0  0  0  0  0  0  0  0  0
   -3.9458    1.1798   -2.7710 H   0  0  0  0  0  0  0  0  0  0  0  0
   -2.2345    0.7650   -2.9299 H   0  0  0  0  0  0  0  0  0  0  0  0
   -1.5680   -0.7247   -1.2933 H   0  0  0  0  0  0  0  0  0  0  0  0
    1.7579   -5.8749    0.6044 H   0  0  0  0  0  0  0  0  0  0  0  0
    2.9447   -5.2817   -0.4659 H   0  0  0  0  0  0  0  0  0  0  0  0
    3.0271    0.8572   -2.1486 H   0  0  0  0  0  0  0  0  0  0  0  0
    1.3802    0.6497   -1.5748 H   0  0  0  0  0  0  0  0  0  0  0  0
    2.4668    0.6478    0.8560 H   0  0  0  0  0  0  0  0  0  0  0  0
    2.3392    3.0987   -0.9668 H   0  0  0  0  0  0  0  0  0  0  0  0
    1.2303    2.6679    0.3514 H   0  0  0  0  0  0  0  0  0  0  0  0
    2.9775    3.0246    2.0029 H   0  0  0  0  0  0  0  0  0  0  0  0
    3.2499    4.3782    0.8888 H   0  0  0  0  0  0  0  0  0  0  0  0
    5.0309    3.1940   -0.2337 H   0  0  0  0  0  0  0  0  0  0  0  0
    5.2467    2.5821    1.4210 H   0  0  0  0  0  0  0  0  0  0  0  0
  1  2  1  0
  2  3  1  0
  3  4  1  0
  4  5  2  0
  5  6  1  0
  6  7  2  0
  7  8  1  0
  7  9  1  0
  9 10  1  0
  9 11  2  0
  2 12  2  0
 12 13  1  0
 13 14  2  0
 13 15  1  0
 12 16  1  0
 16 17  1  0
 16 18  2  0
 18 19  1  0
 19 20  2  3
 20 21  1  0
 21 22  1  0
 22 23  1  0
 23 24  1  0
 24 25  1  0
 25 26  1  0
 19  1  1  0
 26 22  1  0
 11  4  1  0
  1 27  1  0
  3 28  1  0
  5 29  1  0
  6 30  1  0
  8 31  1  0
  8 32  1  0
  8 33  1  0
 10 34  1  0
 10 35  1  0
 10 36  1  0
 11 37  1  0
 17 38  1  0
 17 39  1  0
 21 40  1  0
 21 41  1  0
 22 42  1  0
 23 43  1  0
 23 44  1  0
 24 45  1  0
 24 46  1  0
 25 47  1  0
 25 48  1  0
M  CHG  2  13   1  15  -1
M  END
>  <ScrubInfo>  (3) 
{"isomerGroup": 0, "isomerId": 2, "confId": 0, "nr_conformers:": 1, "nr_isomers:": 9}

$$$$
_i3
     RDKit          3D

 48 50  0  0  0  0  0  0  0  0999 V2000
    1.8856   -0.0702   -1.9641 N   0  0  0  0  0  0  0  0  0  0  0  0
    1.0738    0.2330   -3.0313 C   0  0  0  0  0  0  0  0  0  0  0  0
    1.7187    0.5733   -4.2100 N   0  0  0  0  0  0  0  0  0  0  0  0
   -0.2629    0.1829   -2.8150 C   0  0  0  0  0  0  0  0  0  0  0  0
   -1.1925    0.4556   -3.8901 N   0  0  0  0  0  4  0  0  0  0  0  0
   -0.8019    0.3326   -5.0622 O   0  0  0  0  0  0  0  0  0  0  0  0
   -2.3485    0.7807   -3.5790 O   0  0  0  0  0  1  0  0  0  0  0  0
   -0.7686   -0.2079   -1.4393 C   0  0  0  0  0  0  0  0  0  0  0  0
   -2.1380   -0.2910   -1.1966 N   0  0  0  0  0  0  0  0  0  0  0  0
   -2.8568   -0.6324   -0.0317 C   0  0  0  0  0  0  0  0  0  0  0  0
   -2.2837   -1.0777    1.1582 C   0  0  0  0  0  0  0  0  0  0  0  0
   -3.0748   -1.4149    2.2635 C   0  0  0  0  0  0  0  0  0  0  0  0
   -4.4705   -1.3245    2.2102 C   0  0  0  0  0  0  0  0  0  0  0  0
   -5.2821   -1.6959    3.4197 C   0  0  0  0  0  0  0  0  0  0  0  0
   -5.0752   -0.8908    1.0194 C   0  0  0  0  0  0  0  0  0  0  0  0
   -6.5696   -0.7759    0.8950 C   0  0  0  0  0  0  0  0  0  0  0  0
   -4.2621   -0.5549   -0.0800 C   0  0  0  0  0  0  0  0  0  0  0  0
    0.0885   -0.4708   -0.4844 N   0  0  0  0  0  0  0  0  0  0  0  0
    1.4335   -0.3709   -0.7101 C   0  0  0  0  0  0  0  0  0  0  0  0
    2.1406   -0.5770    0.3385 N   0  0  0  0  0  0  0  0  0  0  0  0
    3.6020   -0.5247    0.2941 C   0  0  0  0  0  0  0  0  0  0  0  0
    4.1153    0.9060    0.4981 C   0  0  0  0  0  0  0  0  0  0  0  0
    5.5938    1.0468    0.1677 C   0  0  0  0  0  0  0  0  0  0  0  0
    5.9769    2.2520    0.9888 C   0  0  0  0  0  0  0  0  0  0  0  0
    5.1679    2.0398    2.2499 C   0  0  0  0  0  0  0  0  0  0  0  0
    3.9873    1.3205    1.8714 O   0  0  0  0  0  0  0  0  0  0  0  0
    2.8615    0.1427   -2.0862 H   0  0  0  0  0  0  0  0  0  0  0  0
    2.5265   -0.0165   -4.3972 H   0  0  0  0  0  0  0  0  0  0  0  0
    1.0918    0.5692   -5.0248 H   0  0  0  0  0  0  0  0  0  0  0  0
   -2.7467    0.0728   -1.9302 H   0  0  0  0  0  0  0  0  0  0  0  0
   -1.2085   -1.1768    1.2714 H   0  0  0  0  0  0  0  0  0  0  0  0
   -2.5775   -1.7511    3.1713 H   0  0  0  0  0  0  0  0  0  0  0  0
   -4.6425   -1.9943    4.2573 H   0  0  0  0  0  0  0  0  0  0  0  0
   -5.9410   -2.5394    3.1909 H   0  0  0  0  0  0  0  0  0  0  0  0
   -5.8820   -0.8430    3.7525 H   0  0  0  0  0  0  0  0  0  0  0  0
   -6.8663   -0.4368   -0.1032 H   0  0  0  0  0  0  0  0  0  0  0  0
   -6.9563   -0.0505    1.6178 H   0  0  0  0  0  0  0  0  0  0  0  0
   -7.0416   -1.7488    1.0649 H   0  0  0  0  0  0  0  0  0  0  0  0
   -4.7442   -0.2219   -0.9977 H   0  0  0  0  0  0  0  0  0  0  0  0
    3.9832   -0.9502   -0.6415 H   0  0  0  0  0  0  0  0  0  0  0  0
    3.9753   -1.1662    1.1011 H   0  0  0  0  0  0  0  0  0  0  0  0
    3.5333    1.6148   -0.1038 H   0  0  0  0  0  0  0  0  0  0  0  0
    6.1579    0.1718    0.5134 H   0  0  0  0  0  0  0  0  0  0  0  0
    5.7788    1.1742   -0.9026 H   0  0  0  0  0  0  0  0  0  0  0  0
    7.0503    2.3332    1.1785 H   0  0  0  0  0  0  0  0  0  0  0  0
    5.6479    3.1671    0.4821 H   0  0  0  0  0  0  0  0  0  0  0  0
    4.8887    2.9805    2.7326 H   0  0  0  0  0  0  0  0  0  0  0  0
    5.7148    1.4253    2.9728 H   0  0  0  0  0  0  0  0  0  0  0  0
  1  2  1  0
  2  3  1  0
  2  4  2  0
  4  5  1  0
  5  6  2  0
  5  7  1  0
  4  8  1  0
  8  9  1  0
  9 10  1  0
 10 11  2  0
 11 12  1  0
 12 13  2  0
 13 14  1  0
 13 15  1  0
 15 16  1  0
 15 17  2  0
  8 18  2  0
 18 19  1  0
 19 20  2  3
 20 21  1  0
 21 22  1  0
 22 23  1  0
 23 24  1  0
 24 25  1  0
 25 26  1  0
 19  1  1  0
 26 22  1  0
 17 10  1  0
  1 27  1  0
  3 28  1  0
  3 29  1  0
  9 30  1  0
 11 31  1  0
 12 32  1  0
 14 33  1  0
 14 34  1  0
 14 35  1  0
 16 36  1  0
 16 37  1  0
 16 38  1  0
 17 39  1  0
 21 40  1  0
 21 41  1  0
 22 42  1  0
 23 43  1  0
 23 44  1  0
 24 45  1  0
 24 46  1  0
 25 47  1  0
 25 48  1  0
M  CHG  2   5   1   7  -1
M  END
>  <ScrubInfo>  (4) 
{"isomerGroup": 0, "isomerId": 3, "confId": 0, "nr_conformers:": 1, "nr_isomers:": 9}

$$$$
_i4
     RDKit          3D

 48 50  0  0  0  0  0  0  0  0999 V2000
   -1.8286    0.5707    1.6122 N   0  0  0  0  0  0  0  0  0  0  0  0
   -1.0091    0.7102    0.5413 C   0  0  0  0  0  0  0  0  0  0  0  0
   -1.4957    1.4591   -0.4871 N   0  0  0  0  0  0  0  0  0  0  0  0
   -2.6307    1.0576   -1.3320 C   0  0  0  0  0  0  0  0  0  0  0  0
   -3.7524    0.2798   -0.6297 C   0  0  0  0  0  0  0  0  0  0  0  0
   -4.9483    0.0207   -1.5338 C   0  0  0  0  0  0  0  0  0  0  0  0
   -6.0593   -0.1495   -0.5286 C   0  0  0  0  0  0  0  0  0  0  0  0
   -5.7024    0.8902    0.5111 C   0  0  0  0  0  0  0  0  0  0  0  0
   -4.2688    1.0036    0.5143 O   0  0  0  0  0  0  0  0  0  0  0  0
    0.1994    0.2331    0.4978 N   0  0  0  0  0  0  0  0  0  0  0  0
    0.6889   -0.5011    1.5929 C   0  0  0  0  0  0  0  0  0  0  0  0
    1.9727   -1.0619    1.5206 N   0  0  0  0  0  0  0  0  0  0  0  0
    3.0075   -0.8593    0.5890 C   0  0  0  0  0  0  0  0  0  0  0  0
    3.9939   -1.8458    0.4621 C   0  0  0  0  0  0  0  0  0  0  0  0
    5.0414   -1.7129   -0.4540 C   0  0  0  0  0  0  0  0  0  0  0  0
    5.1349   -0.5834   -1.2753 C   0  0  0  0  0  0  0  0  0  0  0  0
    6.2744   -0.4691   -2.2493 C   0  0  0  0  0  0  0  0  0  0  0  0
    4.1544    0.4189   -1.1666 C   0  0  0  0  0  0  0  0  0  0  0  0
    4.2053    1.6611   -2.0135 C   0  0  0  0  0  0  0  0  0  0  0  0
    3.1073    0.2654   -0.2362 C   0  0  0  0  0  0  0  0  0  0  0  0
   -0.0978   -0.6871    2.6917 C   0  0  0  0  0  0  0  0  0  0  0  0
    0.4135   -1.3882    3.8299 N   0  0  0  0  0  4  0  0  0  0  0  0
    0.4318   -0.7938    4.9158 O   0  0  0  0  0  0  0  0  0  0  0  0
    0.8706   -2.5281    3.6379 O   0  0  0  0  0  1  0  0  0  0  0  0
   -1.4776   -0.1460    2.7173 C   0  0  0  0  0  0  0  0  0  0  0  0
   -2.3132   -0.3549    3.6851 N   0  0  0  0  0  0  0  0  0  0  0  0
   -2.7534    0.9837    1.5348 H   0  0  0  0  0  0  0  0  0  0  0  0
   -0.7099    1.6802   -1.0986 H   0  0  0  0  0  0  0  0  0  0  0  0
   -2.2492    0.4582   -2.1672 H   0  0  0  0  0  0  0  0  0  0  0  0
   -3.0403    1.9814   -1.7565 H   0  0  0  0  0  0  0  0  0  0  0  0
   -3.3697   -0.6776   -0.2540 H   0  0  0  0  0  0  0  0  0  0  0  0
   -4.8104   -0.8508   -2.1799 H   0  0  0  0  0  0  0  0  0  0  0  0
   -5.1584    0.8896   -2.1690 H   0  0  0  0  0  0  0  0  0  0  0  0
   -6.0110   -1.1522   -0.0876 H   0  0  0  0  0  0  0  0  0  0  0  0
   -7.0585   -0.0076   -0.9484 H   0  0  0  0  0  0  0  0  0  0  0  0
   -6.1118    1.8714    0.2486 H   0  0  0  0  0  0  0  0  0  0  0  0
   -6.0511    0.6216    1.5121 H   0  0  0  0  0  0  0  0  0  0  0  0
    2.1479   -1.8302    2.1680 H   0  0  0  0  0  0  0  0  0  0  0  0
    3.9547   -2.7417    1.0772 H   0  0  0  0  0  0  0  0  0  0  0  0
    5.7847   -2.5045   -0.5186 H   0  0  0  0  0  0  0  0  0  0  0  0
    5.8948   -0.4305   -3.2752 H   0  0  0  0  0  0  0  0  0  0  0  0
    6.8634    0.4302   -2.0431 H   0  0  0  0  0  0  0  0  0  0  0  0
    6.9508   -1.3277   -2.1795 H   0  0  0  0  0  0  0  0  0  0  0  0
    4.1921    1.3989   -3.0761 H   0  0  0  0  0  0  0  0  0  0  0  0
    5.1097    2.2356   -1.7896 H   0  0  0  0  0  0  0  0  0  0  0  0
    3.3447    2.3122   -1.8270 H   0  0  0  0  0  0  0  0  0  0  0  0
    2.3731    1.0609   -0.1456 H   0  0  0  0  0  0  0  0  0  0  0  0
   -3.2044    0.1099    3.4882 H   0  0  0  0  0  0  0  0  0  0  0  0
  1  2  1  0
  2  3  1  0
  3  4  1  0
  4  5  1  0
  5  6  1  0
  6  7  1  0
  7  8  1  0
  8  9  1  0
  2 10  2  0
 10 11  1  0
 11 12  1  0
 12 13  1  0
 13 14  2  0
 14 15  1  0
 15 16  2  0
 16 17  1  0
 16 18  1  0
 18 19  1  0
 18 20  2  0
 11 21  2  0
 21 22  1  0
 22 23  2  0
 22 24  1  0
 21 25  1  0
 25 26  2  3
 25  1  1  0
  9  5  1  0
 20 13  1  0
  1 27  1  0
  3 28  1  0
  4 29  1  0
  4 30  1  0
  5 31  1  0
  6 32  1  0
  6 33  1  0
  7 34  1  0
  7 35  1  0
  8 36  1  0
  8 37  1  0
 12 38  1  0
 14 39  1  0
 15 40  1  0
 17 41  1  0
 17 42  1  0
 17 43  1  0
 19 44  1  0
 19 45  1  0
 19 46  1  0
 20 47  1  0
 26 48  1  0
M  CHG  2  22   1  24  -1
M  END
>  <ScrubInfo>  (5) 
{"isomerGroup": 0, "isomerId": 4, "confId": 0, "nr_conformers:": 1, "nr_isomers:": 9}

$$$$
_i5
     RDKit          3D

 48 50  0  0  0  0  0  0  0  0999 V2000
    0.7645    0.8779   -0.3608 N   0  0  0  0  0  0  0  0  0  0  0  0
    1.8571    1.1827    0.3910 C   0  0  0  0  0  0  0  0  0  0  0  0
    2.9421    0.3836    0.2025 N   0  0  0  0  0  0  0  0  0  0  0  0
    3.4636    0.0637   -1.1258 C   0  0  0  0  0  0  0  0  0  0  0  0
    4.7621   -0.7454   -1.0158 C   0  0  0  0  0  0  0  0  0  0  0  0
    4.6072   -2.1184   -0.3788 C   0  0  0  0  0  0  0  0  0  0  0  0
    5.9973   -2.3610    0.1547 C   0  0  0  0  0  0  0  0  0  0  0  0
    6.3945   -0.9818    0.6362 C   0  0  0  0  0  0  0  0  0  0  0  0
    5.7317   -0.0355   -0.2170 O   0  0  0  0  0  0  0  0  0  0  0  0
    1.9025    2.1469    1.2538 N   0  0  0  0  0  0  0  0  0  0  0  0
    0.7757    2.9163    1.4503 C   0  0  0  0  0  0  0  0  0  0  0  0
    0.9052    3.8329    2.3473 N   0  0  0  0  0  0  0  0  0  0  0  0
   -0.4277    2.5967    0.6439 C   0  0  0  0  0  0  0  0  0  0  0  0
   -1.5760    3.4410    0.7614 N   0  0  0  0  0  4  0  0  0  0  0  0
   -1.9910    3.6623    1.9082 O   0  0  0  0  0  0  0  0  0  0  0  0
   -2.0386    3.9490   -0.2700 O   0  0  0  0  0  1  0  0  0  0  0  0
   -0.4349    1.5517   -0.2135 C   0  0  0  0  0  0  0  0  0  0  0  0
   -1.5241    1.1266   -0.9584 N   0  0  0  0  0  0  0  0  0  0  0  0
   -2.6057    0.3644   -0.4475 C   0  0  0  0  0  0  0  0  0  0  0  0
   -2.7731    0.0695    0.9075 C   0  0  0  0  0  0  0  0  0  0  0  0
   -3.8920   -0.6422    1.3511 C   0  0  0  0  0  0  0  0  0  0  0  0
   -4.8831   -1.0623    0.4544 C   0  0  0  0  0  0  0  0  0  0  0  0
   -6.0769   -1.8154    0.9737 C   0  0  0  0  0  0  0  0  0  0  0  0
   -4.7464   -0.7481   -0.9093 C   0  0  0  0  0  0  0  0  0  0  0  0
   -5.7938   -1.1438   -1.9141 C   0  0  0  0  0  0  0  0  0  0  0  0
   -3.6147   -0.0320   -1.3389 C   0  0  0  0  0  0  0  0  0  0  0  0
    0.6938   -0.0681   -0.7088 H   0  0  0  0  0  0  0  0  0  0  0  0
    3.7088    0.7266    0.7889 H   0  0  0  0  0  0  0  0  0  0  0  0
    2.7253   -0.4992   -1.7067 H   0  0  0  0  0  0  0  0  0  0  0  0
    3.6729    1.0042   -1.6488 H   0  0  0  0  0  0  0  0  0  0  0  0
    5.1969   -0.8547   -2.0173 H   0  0  0  0  0  0  0  0  0  0  0  0
    4.2778   -2.8797   -1.0915 H   0  0  0  0  0  0  0  0  0  0  0  0
    3.8950   -2.1007    0.4541 H   0  0  0  0  0  0  0  0  0  0  0  0
    6.6580   -2.6774   -0.6611 H   0  0  0  0  0  0  0  0  0  0  0  0
    6.0404   -3.1170    0.9430 H   0  0  0  0  0  0  0  0  0  0  0  0
    6.0488   -0.8047    1.6602 H   0  0  0  0  0  0  0  0  0  0  0  0
    7.4750   -0.8181    0.5985 H   0  0  0  0  0  0  0  0  0  0  0  0
    0.0300    4.3474    2.4995 H   0  0  0  0  0  0  0  0  0  0  0  0
   -1.2574    0.7766   -1.8759 H   0  0  0  0  0  0  0  0  0  0  0  0
   -2.0417    0.3705    1.6514 H   0  0  0  0  0  0  0  0  0  0  0  0
   -3.9863   -0.8588    2.4137 H   0  0  0  0  0  0  0  0  0  0  0  0
   -6.9925   -1.2408    0.8013 H   0  0  0  0  0  0  0  0  0  0  0  0
   -6.1577   -2.7892    0.4805 H   0  0  0  0  0  0  0  0  0  0  0  0
   -5.9990   -1.9997    2.0505 H   0  0  0  0  0  0  0  0  0  0  0  0
   -5.9140   -2.2316   -1.9305 H   0  0  0  0  0  0  0  0  0  0  0  0
   -6.7515   -0.6733   -1.6698 H   0  0  0  0  0  0  0  0  0  0  0  0
   -5.5199   -0.8290   -2.9267 H   0  0  0  0  0  0  0  0  0  0  0  0
   -3.5282    0.2356   -2.3906 H   0  0  0  0  0  0  0  0  0  0  0  0
  1  2  1  0
  2  3  1  0
  3  4  1  0
  4  5  1  0
  5  6  1  0
  6  7  1  0
  7  8  1  0
  8  9  1  0
  2 10  2  0
 10 11  1  0
 11 12  2  3
 11 13  1  0
 13 14  1  0
 14 15  2  0
 14 16  1  0
 13 17  2  0
 17 18  1  0
 18 19  1  0
 19 20  2  0
 20 21  1  0
 21 22  2  0
 22 23  1  0
 22 24  1  0
 24 25  1  0
 24 26  2  0
 17  1  1  0
 26 19  1  0
  9  5  1  0
  1 27  1  0
  3 28  1  0
  4 29  1  0
  4 30  1  0
  5 31  1  0
  6 32  1  0
  6 33  1  0
  7 34  1  0
  7 35  1  0
  8 36  1  0
  8 37  1  0
 12 38  1  0
 18 39  1  0
 20 40  1  0
 21 41  1  0
 23 42  1  0
 23 43  1  0
 23 44  1  0
 25 45  1  0
 25 46  1  0
 25 47  1  0
 26 48  1  0
M  CHG  2  14   1  16  -1
M  END
>  <ScrubInfo>  (6) 
{"isomerGroup": 0, "isomerId": 5, "confId": 0, "nr_conformers:": 1, "nr_isomers:": 9}

$$$$
_i6
     RDKit          3D

 48 50  0  0  0  0  0  0  0  0999 V2000
   -1.2088    1.8658   -0.0338 N   0  0  0  0  0  0  0  0  0  0  0  0
   -1.5633    0.6654    0.5123 C   0  0  0  0  0  0  0  0  0  0  0  0
   -2.9013    0.4695    0.6702 N   0  0  0  0  0  0  0  0  0  0  0  0
   -3.8474    0.6603   -0.4287 C   0  0  0  0  0  0  0  0  0  0  0  0
   -5.2446    0.2103    0.0121 C   0  0  0  0  0  0  0  0  0  0  0  0
   -6.3029    0.3927   -1.0620 C   0  0  0  0  0  0  0  0  0  0  0  0
   -7.3229   -0.6428   -0.6589 C   0  0  0  0  0  0  0  0  0  0  0  0
   -6.4463   -1.7833   -0.1861 C   0  0  0  0  0  0  0  0  0  0  0  0
   -5.2376   -1.1993    0.3232 O   0  0  0  0  0  0  0  0  0  0  0  0
   -0.7184   -0.2324    0.9094 N   0  0  0  0  0  0  0  0  0  0  0  0
    0.6299   -0.0044    0.6752 C   0  0  0  0  0  0  0  0  0  0  0  0
    1.3218   -1.0955    0.6134 N   0  0  0  0  0  0  0  0  0  0  0  0
    2.6692   -1.0999    0.2474 C   0  0  0  0  0  0  0  0  0  0  0  0
    3.0435   -0.9815   -1.0907 C   0  0  0  0  0  0  0  0  0  0  0  0
    4.3920   -1.0013   -1.4505 C   0  0  0  0  0  0  0  0  0  0  0  0
    5.3908   -1.1567   -0.4776 C   0  0  0  0  0  0  0  0  0  0  0  0
    6.8345   -1.1696   -0.8989 C   0  0  0  0  0  0  0  0  0  0  0  0
    5.0181   -1.3162    0.8718 C   0  0  0  0  0  0  0  0  0  0  0  0
    6.0440   -1.4954    1.9564 C   0  0  0  0  0  0  0  0  0  0  0  0
    3.6559   -1.2938    1.2150 C   0  0  0  0  0  0  0  0  0  0  0  0
    1.0148    1.4198    0.4803 C   0  0  0  0  0  0  0  0  0  0  0  0
    2.3384    1.8718    0.7656 N   0  0  0  0  0  4  0  0  0  0  0  0
    2.9346    2.4959   -0.1286 O   0  0  0  0  0  0  0  0  0  0  0  0
    2.7738    1.6754    1.9078 O   0  0  0  0  0  1  0  0  0  0  0  0
    0.0916    2.3250    0.0776 C   0  0  0  0  0  0  0  0  0  0  0  0
    0.3036    3.6694   -0.1877 N   0  0  0  0  0  0  0  0  0  0  0  0
   -1.8963    2.6005    0.0766 H   0  0  0  0  0  0  0  0  0  0  0  0
   -3.0538   -0.4553    1.0843 H   0  0  0  0  0  0  0  0  0  0  0  0
   -3.5153    0.0611   -1.2848 H   0  0  0  0  0  0  0  0  0  0  0  0
   -3.8749    1.7137   -0.7270 H   0  0  0  0  0  0  0  0  0  0  0  0
   -5.5399    0.7361    0.9291 H   0  0  0  0  0  0  0  0  0  0  0  0
   -6.7050    1.4090   -1.0941 H   0  0  0  0  0  0  0  0  0  0  0  0
   -5.9031    0.1486   -2.0537 H   0  0  0  0  0  0  0  0  0  0  0  0
   -8.0000   -0.9319   -1.4668 H   0  0  0  0  0  0  0  0  0  0  0  0
   -7.9266   -0.2648    0.1748 H   0  0  0  0  0  0  0  0  0  0  0  0
   -6.9229   -2.3836    0.5940 H   0  0  0  0  0  0  0  0  0  0  0  0
   -6.1720   -2.4427   -1.0163 H   0  0  0  0  0  0  0  0  0  0  0  0
    2.2836   -0.8820   -1.8603 H   0  0  0  0  0  0  0  0  0  0  0  0
    4.6580   -0.8983   -2.5000 H   0  0  0  0  0  0  0  0  0  0  0  0
    7.3959   -0.3976   -0.3632 H   0  0  0  0  0  0  0  0  0  0  0  0
    6.9423   -0.9671   -1.9699 H   0  0  0  0  0  0  0  0  0  0  0  0
    7.2785   -2.1499   -0.6994 H   0  0  0  0  0  0  0  0  0  0  0  0
    6.6676   -0.5997    2.0393 H   0  0  0  0  0  0  0  0  0  0  0  0
    6.6765   -2.3632    1.7444 H   0  0  0  0  0  0  0  0  0  0  0  0
    5.5740   -1.6643    2.9311 H   0  0  0  0  0  0  0  0  0  0  0  0
    3.3503   -1.4140    2.2523 H   0  0  0  0  0  0  0  0  0  0  0  0
    1.2891    3.8952   -0.3626 H   0  0  0  0  0  0  0  0  0  0  0  0
   -0.2690    4.0015   -0.9605 H   0  0  0  0  0  0  0  0  0  0  0  0
  1  2  1  0
  2  3  1  0
  3  4  1  0
  4  5  1  0
  5  6  1  0
  6  7  1  0
  7  8  1  0
  8  9  1  0
  2 10  2  0
 10 11  1  0
 11 12  2  3
 12 13  1  0
 13 14  2  0
 14 15  1  0
 15 16  2  0
 16 17  1  0
 16 18  1  0
 18 19  1  0
 18 20  2  0
 11 21  1  0
 21 22  1  0
 22 23  2  0
 22 24  1  0
 21 25  2  0
 25 26  1  0
 25  1  1  0
  9  5  1  0
 20 13  1  0
  1 27  1  0
  3 28  1  0
  4 29  1  0
  4 30  1  0
  5 31  1  0
  6 32  1  0
  6 33  1  0
  7 34  1  0
  7 35  1  0
  8 36  1  0
  8 37  1  0
 14 38  1  0
 15 39  1  0
 17 40  1  0
 17 41  1  0
 17 42  1  0
 19 43  1  0
 19 44  1  0
 19 45  1  0
 20 46  1  0
 26 47  1  0
 26 48  1  0
M  CHG  2  22   1  24  -1
M  END
>  <ScrubInfo>  (7) 
{"isomerGroup": 0, "isomerId": 6, "confId": 0, "nr_conformers:": 1, "nr_isomers:": 9}

$$$$
_i7
     RDKit          3D

 48 50  0  0  0  0  0  0  0  0999 V2000
    1.7707    2.9730   -0.5974 N   0  0  0  0  0  0  0  0  0  0  0  0
    0.9854    4.0843   -0.3227 C   0  0  0  0  0  0  0  0  0  0  0  0
    1.6270    5.3141   -0.3474 N   0  0  0  0  0  0  0  0  0  0  0  0
   -0.3281    3.8850   -0.0439 C   0  0  0  0  0  0  0  0  0  0  0  0
   -1.1696    4.9930    0.2926 N   0  0  0  0  0  4  0  0  0  0  0  0
   -1.1877    5.9521   -0.4974 O   0  0  0  0  0  0  0  0  0  0  0  0
   -1.7743    4.9511    1.3720 O   0  0  0  0  0  1  0  0  0  0  0  0
   -0.8743    2.4977   -0.0974 C   0  0  0  0  0  0  0  0  0  0  0  0
   -2.1562    2.3024    0.0570 N   0  0  0  0  0  0  0  0  0  0  0  0
   -2.6673    1.0000    0.0033 C   0  0  0  0  0  0  0  0  0  0  0  0
   -3.0793    0.4536   -1.2101 C   0  0  0  0  0  0  0  0  0  0  0  0
   -3.5545   -0.8572   -1.2656 C   0  0  0  0  0  0  0  0  0  0  0  0
   -3.6347   -1.6406   -0.1040 C   0  0  0  0  0  0  0  0  0  0  0  0
   -4.1588   -3.0478   -0.2002 C   0  0  0  0  0  0  0  0  0  0  0  0
   -3.2457   -1.0842    1.1310 C   0  0  0  0  0  0  0  0  0  0  0  0
   -3.3349   -1.8702    2.4103 C   0  0  0  0  0  0  0  0  0  0  0  0
   -2.7689    0.2365    1.1682 C   0  0  0  0  0  0  0  0  0  0  0  0
    0.0526    1.4945   -0.3414 N   0  0  0  0  0  0  0  0  0  0  0  0
    1.3925    1.6528   -0.5840 C   0  0  0  0  0  0  0  0  0  0  0  0
    2.2851    0.7467   -0.7907 N   0  0  0  0  0  0  0  0  0  0  0  0
    1.8563   -0.6529   -0.7694 C   0  0  0  0  0  0  0  0  0  0  0  0
    3.0509   -1.5682   -1.0388 C   0  0  0  0  0  0  0  0  0  0  0  0
    4.1301   -1.5093    0.0313 C   0  0  0  0  0  0  0  0  0  0  0  0
    4.7831   -2.8593   -0.1261 C   0  0  0  0  0  0  0  0  0  0  0  0
    3.5951   -3.7508   -0.4176 C   0  0  0  0  0  0  0  0  0  0  0  0
    2.6147   -2.9422   -1.0855 O   0  0  0  0  0  0  0  0  0  0  0  0
    2.7657    3.1371   -0.6811 H   0  0  0  0  0  0  0  0  0  0  0  0
    0.9852    6.1065   -0.4587 H   0  0  0  0  0  0  0  0  0  0  0  0
    2.3586    5.3587   -1.0527 H   0  0  0  0  0  0  0  0  0  0  0  0
   -3.0323    1.0508   -2.1165 H   0  0  0  0  0  0  0  0  0  0  0  0
   -3.8695   -1.2618   -2.2254 H   0  0  0  0  0  0  0  0  0  0  0  0
   -3.4250   -3.7565    0.1966 H   0  0  0  0  0  0  0  0  0  0  0  0
   -4.3583   -3.3321   -1.2389 H   0  0  0  0  0  0  0  0  0  0  0  0
   -5.0965   -3.1417    0.3564 H   0  0  0  0  0  0  0  0  0  0  0  0
   -3.0163   -1.2738    3.2719 H   0  0  0  0  0  0  0  0  0  0  0  0
   -4.3671   -2.1853    2.5926 H   0  0  0  0  0  0  0  0  0  0  0  0
   -2.6866   -2.7507    2.3607 H   0  0  0  0  0  0  0  0  0  0  0  0
   -2.4741    0.6864    2.1140 H   0  0  0  0  0  0  0  0  0  0  0  0
   -0.3058    0.5505   -0.3528 H   0  0  0  0  0  0  0  0  0  0  0  0
    1.4076   -0.9128    0.1979 H   0  0  0  0  0  0  0  0  0  0  0  0
    1.0952   -0.8359   -1.5386 H   0  0  0  0  0  0  0  0  0  0  0  0
    3.4853   -1.3353   -2.0193 H   0  0  0  0  0  0  0  0  0  0  0  0
    3.6881   -1.4287    1.0318 H   0  0  0  0  0  0  0  0  0  0  0  0
    4.8235   -0.6752   -0.1070 H   0  0  0  0  0  0  0  0  0  0  0  0
    5.3513   -3.1788    0.7513 H   0  0  0  0  0  0  0  0  0  0  0  0
    5.4614   -2.8461   -0.9875 H   0  0  0  0  0  0  0  0  0  0  0  0
    3.8570   -4.6064   -1.0462 H   0  0  0  0  0  0  0  0  0  0  0  0
    3.1431   -4.1231    0.5078 H   0  0  0  0  0  0  0  0  0  0  0  0
  1  2  1  0
  2  3  1  0
  2  4  2  0
  4  5  1  0
  5  6  2  0
  5  7  1  0
  4  8  1  0
  8  9  2  3
  9 10  1  0
 10 11  2  0
 11 12  1  0
 12 13  2  0
 13 14  1  0
 13 15  1  0
 15 16  1  0
 15 17  2  0
  8 18  1  0
 18 19  1  0
 19 20  2  3
 20 21  1  0
 21 22  1  0
 22 23  1  0
 23 24  1  0
 24 25  1  0
 25 26  1  0
 19  1  1  0
 26 22  1  0
 17 10  1  0
  1 27  1  0
  3 28  1  0
  3 29  1  0
 11 30  1  0
 12 31  1  0
 14 32  1  0
 14 33  1  0
 14 34  1  0
 16 35  1  0
 16 36  1  0
 16 37  1  0
 17 38  1  0
 18 39  1  0
 21 40  1  0
 21 41  1  0
 22 42  1  0
 23 43  1  0
 23 44  1  0
 24 45  1  0
 24 46  1  0
 25 47  1  0
 25 48  1  0
M  CHG  2   5   1   7  -1
M  END
>  <ScrubInfo>  (8) 
{"isomerGroup": 0, "isomerId": 7, "confId": 0, "nr_conformers:": 1, "nr_isomers:": 9}

$$$$
_i8
     RDKit          3D

 48 50  0  0  0  0  0  0  0  0999 V2000
    1.9966   -0.7848   -0.1406 N   0  0  0  0  0  0  0  0  0  0  0  0
    1.5349    0.5027   -0.0348 C   0  0  0  0  0  0  0  0  0  0  0  0
    2.0882    1.5939   -0.4358 N   0  0  0  0  0  0  0  0  0  0  0  0
    3.3512    1.5477   -1.1881 C   0  0  0  0  0  0  0  0  0  0  0  0
    4.5365    1.0980   -0.3291 C   0  0  0  0  0  0  0  0  0  0  0  0
    5.8790    1.5490   -0.8796 C   0  0  0  0  0  0  0  0  0  0  0  0
    6.8120    0.5370   -0.2648 C   0  0  0  0  0  0  0  0  0  0  0  0
    5.9938   -0.7343   -0.3377 C   0  0  0  0  0  0  0  0  0  0  0  0
    4.6065   -0.3514   -0.3031 O   0  0  0  0  0  0  0  0  0  0  0  0
    0.3125    0.5716    0.5903 N   0  0  0  0  0  0  0  0  0  0  0  0
   -0.4819   -0.4924    1.0174 C   0  0  0  0  0  0  0  0  0  0  0  0
   -1.7191   -0.2027    1.5845 N   0  0  0  0  0  0  0  0  0  0  0  0
   -2.9114   -0.0612    0.8220 C   0  0  0  0  0  0  0  0  0  0  0  0
   -3.0562   -0.5591   -0.4748 C   0  0  0  0  0  0  0  0  0  0  0  0
   -4.2726   -0.4414   -1.1540 C   0  0  0  0  0  0  0  0  0  0  0  0
   -5.3841    0.1570   -0.5461 C   0  0  0  0  0  0  0  0  0  0  0  0
   -6.6781    0.2525   -1.3066 C   0  0  0  0  0  0  0  0  0  0  0  0
   -5.2695    0.6243    0.7753 C   0  0  0  0  0  0  0  0  0  0  0  0
   -6.4388    1.2412    1.4930 C   0  0  0  0  0  0  0  0  0  0  0  0
   -4.0384    0.4988    1.4440 C   0  0  0  0  0  0  0  0  0  0  0  0
    0.0115   -1.7471    0.8868 C   0  0  0  0  0  0  0  0  0  0  0  0
   -0.7329   -2.8695    1.3523 N   0  0  0  0  0  4  0  0  0  0  0  0
   -0.7172   -3.0960    2.5720 O   0  0  0  0  0  0  0  0  0  0  0  0
   -1.3492   -3.5296    0.5026 O   0  0  0  0  0  1  0  0  0  0  0  0
    1.3622   -1.9232    0.3006 C   0  0  0  0  0  0  0  0  0  0  0  0
    1.9333   -3.0851    0.2147 N   0  0  0  0  0  0  0  0  0  0  0  0
    2.9649   -0.8757   -0.4377 H   0  0  0  0  0  0  0  0  0  0  0  0
    3.2348    0.9077   -2.0714 H   0  0  0  0  0  0  0  0  0  0  0  0
    3.5316    2.5664   -1.5501 H   0  0  0  0  0  0  0  0  0  0  0  0
    4.4189    1.4365    0.7080 H   0  0  0  0  0  0  0  0  0  0  0  0
    6.1225    2.5810   -0.6127 H   0  0  0  0  0  0  0  0  0  0  0  0
    5.9052    1.4581   -1.9724 H   0  0  0  0  0  0  0  0  0  0  0  0
    7.0063    0.7971    0.7825 H   0  0  0  0  0  0  0  0  0  0  0  0
    7.7734    0.4549   -0.7785 H   0  0  0  0  0  0  0  0  0  0  0  0
    6.1654   -1.2638   -1.2805 H   0  0  0  0  0  0  0  0  0  0  0  0
    6.2055   -1.4173    0.4898 H   0  0  0  0  0  0  0  0  0  0  0  0
   -0.1177    1.4878    0.6045 H   0  0  0  0  0  0  0  0  0  0  0  0
   -1.6517    0.5899    2.2218 H   0  0  0  0  0  0  0  0  0  0  0  0
   -2.2354   -1.0521   -0.9872 H   0  0  0  0  0  0  0  0  0  0  0  0
   -4.3462   -0.8375   -2.1650 H   0  0  0  0  0  0  0  0  0  0  0  0
   -7.0194    1.2915   -1.3517 H   0  0  0  0  0  0  0  0  0  0  0  0
   -6.5647   -0.0978   -2.3382 H   0  0  0  0  0  0  0  0  0  0  0  0
   -7.4452   -0.3642   -0.8278 H   0  0  0  0  0  0  0  0  0  0  0  0
   -6.1758    1.5328    2.5154 H   0  0  0  0  0  0  0  0  0  0  0  0
   -7.2658    0.5271    1.5572 H   0  0  0  0  0  0  0  0  0  0  0  0
   -6.7732    2.1426    0.9698 H   0  0  0  0  0  0  0  0  0  0  0  0
   -3.9629    0.8367    2.4758 H   0  0  0  0  0  0  0  0  0  0  0  0
    2.8609   -2.9969   -0.2103 H   0  0  0  0  0  0  0  0  0  0  0  0
  1  2  1  0
  2  3  2  3
  3  4  1  0
  4  5  1  0
  5  6  1  0
  6  7  1  0
  7  8  1  0
  8  9  1  0
  2 10  1  0
 10 11  1  0
 11 12  1  0
 12 13  1  0
 13 14  2  0
 14 15  1  0
 15 16  2  0
 16 17  1  0
 16 18  1  0
 18 19  1  0
 18 20  2  0
 11 21  2  0
 21 22  1  0
 22 23  2  0
 22 24  1  0
 21 25  1  0
 25 26  2  3
 25  1  1  0
  9  5  1  0
 20 13  1  0
  1 27  1  0
  4 28  1  0
  4 29  1  0
  5 30  1  0
  6 31  1  0
  6 32  1  0
  7 33  1  0
  7 34  1  0
  8 35  1  0
  8 36  1  0
 10 37  1  0
 12 38  1  0
 14 39  1  0
 15 40  1  0
 17 41  1  0
 17 42  1  0
 17 43  1  0
 19 44  1  0
 19 45  1  0
 19 46  1  0
 20 47  1  0
 26 48  1  0
M  CHG  2  22   1  24  -1
M  END
>  <ScrubInfo>  (9) 
{"isomerGroup": 0, "isomerId": 8, "confId": 0, "nr_conformers:": 1, "nr_isomers:": 9}

$$$$
