REMARK SMILES Cc1ccc(Nc2nc(NC[C@@H]3CCCO3)nc(N)c2[N+](=O)[O-])cc1C
REMARK SMILES IDX 7 1 8 2 9 3 17 4 18 5 20 6 6 7 5 9 2 10 3 11 25 12 4 13
REMARK SMILES IDX 24 14 1 15 26 16 21 17 22 18 23 19 10 20 11 22 12 23 13 24
REMARK SMILES IDX 16 25 14 26 15 27 19 28
REMARK H PARENT 6 8 10 21 19 29 19 30
ROOT
ATOM      1  C   UNL     1      -0.769   1.188  -1.514  1.00  0.00     0.217 A 
ATOM      2  N   UNL     1       0.029   0.502  -0.673  1.00  0.00    -0.188 NA
ATOM      3  C   UNL     1       1.342   0.445  -0.921  1.00  0.00     0.227 A 
ATOM      4  N   UNL     1       1.929   1.044  -1.965  1.00  0.00    -0.189 NA
ATOM      5  C   UNL     1       1.145   1.712  -2.823  1.00  0.00     0.210 A 
ATOM      6  C   UNL     1      -0.216   1.808  -2.622  1.00  0.00     0.353 A 
ENDROOT
BRANCH   1   7
ATOM      7  N   UNL     1      -2.166   1.223  -1.278  1.00  0.00    -0.334 N 
ATOM      8  H   UNL     1      -2.535   2.164  -1.426  1.00  0.00     0.168 HD
BRANCH   7   9
ATOM      9  C   UNL     1      -2.944   0.501  -0.347  1.00  0.00     0.040 A 
ATOM     10  C   UNL     1      -4.646  -0.922   1.425  1.00  0.00    -0.048 A 
ATOM     11  C   UNL     1      -3.405  -1.443   1.040  1.00  0.00     0.006 A 
ATOM     12  C   UNL     1      -5.059   0.314   0.896  1.00  0.00    -0.046 A 
ATOM     13  C   UNL     1      -2.572  -0.745   0.160  1.00  0.00     0.026 A 
ATOM     14  C   UNL     1      -4.206   1.002   0.013  1.00  0.00     0.029 A 
ATOM     15  C   UNL     1      -5.515  -1.705   2.370  1.00  0.00     0.044 C 
ATOM     16  C   UNL     1      -6.390   0.915   1.254  1.00  0.00     0.044 C 
ENDBRANCH   7   9
ENDBRANCH   1   7
BRANCH   6  17
ATOM     17  N   UNL     1      -1.039   2.536  -3.544  1.00  0.00     0.070 N 
ATOM     18  O   UNL     1      -0.881   2.317  -4.755  1.00  0.00    -0.258 OA
ATOM     19  O   UNL     1      -1.866   3.329  -3.065  1.00  0.00    -0.258 OA
ENDBRANCH   6  17
BRANCH   3  20
ATOM     20  N   UNL     1       2.090  -0.282  -0.019  1.00  0.00    -0.351 N 
ATOM     21  H   UNL     1       1.533  -0.431   0.815  1.00  0.00     0.163 HD
BRANCH  20  22
ATOM     22  C   UNL     1       3.463   0.161   0.181  1.00  0.00     0.148 C 
BRANCH  22  23
ATOM     23  C   UNL     1       4.072  -0.488   1.443  1.00  0.00     0.137 C 
ATOM     24  C   UNL     1       5.484   0.007   1.724  1.00  0.00     0.036 C 
ATOM     25  O   UNL     1       4.181  -1.916   1.267  1.00  0.00    -0.376 OA
ATOM     26  C   UNL     1       6.339  -0.989   0.982  1.00  0.00     0.031 C 
ATOM     27  C   UNL     1       5.566  -2.273   1.179  1.00  0.00     0.160 C 
ENDBRANCH  22  23
ENDBRANCH  20  22
ENDBRANCH   3  20
BRANCH   5  28
ATOM     28  N   UNL     1       1.835   2.354  -3.852  1.00  0.00    -0.378 N 
ATOM     29  H   UNL     1       2.810   2.065  -3.817  1.00  0.00     0.158 HD
ATOM     30  H   UNL     1       1.421   2.190  -4.769  1.00  0.00     0.158 HD
ENDBRANCH   5  28
TORSDOF 7
