_i0
     RDKit          3D

 48 50  0  0  0  0  0  0  0  0999 V2000
   -6.1386    3.6420   -0.7215 C   0  0  0  0  0  0  0  0  0  0  0  0
   -5.2814    2.4393   -0.4646 C   0  0  0  0  0  0  0  0  0  0  0  0
   -5.8384    1.2610    0.0351 C   0  0  0  0  0  0  0  0  0  0  0  0
   -5.0268    0.1524    0.3018 C   0  0  0  0  0  0  0  0  0  0  0  0
   -3.6402    0.1879    0.0816 C   0  0  0  0  0  0  0  0  0  0  0  0
   -2.8823   -0.9529    0.3990 N   0  0  0  0  0  0  0  0  0  0  0  0
   -1.4994   -1.1775    0.4718 C   0  0  0  0  0  0  0  0  0  0  0  0
   -0.5985   -0.1629    0.3815 N   0  0  0  0  0  0  0  0  0  0  0  0
    0.7230   -0.3966    0.4710 C   0  0  0  0  0  0  0  0  0  0  0  0
    1.5124    0.7406    0.3507 N   0  0  0  0  0  0  0  0  0  0  0  0
    2.7169    0.7752    1.1614 C   0  0  0  0  0  0  0  0  0  0  0  0
    3.9315    0.2159    0.4114 C   0  0  0  0  0  0  0  0  0  0  0  0
    4.2546    0.9118   -0.9265 C   0  0  0  0  0  0  0  0  0  0  0  0
    4.5652    2.3990   -0.7528 C   0  0  0  0  0  0  0  0  0  0  0  0
    5.4390    0.2120   -1.5990 C   0  0  0  0  0  0  0  0  0  0  0  0
    1.2902   -1.5930    0.6643 N   0  0  0  0  0  0  0  0  0  0  0  0
    0.3936   -2.5844    0.7528 C   0  0  0  0  0  0  0  0  0  0  0  0
   -0.9792   -2.4627    0.6724 C   0  0  0  0  0  0  0  0  0  0  0  0
   -1.4551   -3.7815    0.8303 C   0  0  0  0  0  0  0  0  0  0  0  0
   -0.4734   -4.6746    0.9989 N   0  0  0  0  0  0  0  0  0  0  0  0
    0.6462   -3.9156    0.9396 N   0  0  0  0  0  0  0  0  0  0  0  0
    1.9373   -4.5422    1.0722 C   0  0  0  0  0  0  0  0  0  0  0  0
   -3.0934    1.3823   -0.3936 C   0  0  0  0  0  0  0  0  0  0  0  0
   -3.9001    2.4952   -0.6641 C   0  0  0  0  0  0  0  0  0  0  0  0
   -7.1504    3.3448   -1.0166 H   0  0  0  0  0  0  0  0  0  0  0  0
   -6.1999    4.2578    0.1811 H   0  0  0  0  0  0  0  0  0  0  0  0
   -5.7279    4.2476   -1.5362 H   0  0  0  0  0  0  0  0  0  0  0  0
   -6.9073    1.1951    0.2241 H   0  0  0  0  0  0  0  0  0  0  0  0
   -5.4965   -0.7455    0.6955 H   0  0  0  0  0  0  0  0  0  0  0  0
   -3.4382   -1.7847    0.5370 H   0  0  0  0  0  0  0  0  0  0  0  0
    0.8743    1.5162    0.5000 H   0  0  0  0  0  0  0  0  0  0  0  0
    2.9137    1.8169    1.4394 H   0  0  0  0  0  0  0  0  0  0  0  0
    2.5821    0.2417    2.1115 H   0  0  0  0  0  0  0  0  0  0  0  0
    4.8033    0.2864    1.0749 H   0  0  0  0  0  0  0  0  0  0  0  0
    3.7805   -0.8539    0.2222 H   0  0  0  0  0  0  0  0  0  0  0  0
    3.3922    0.8174   -1.5979 H   0  0  0  0  0  0  0  0  0  0  0  0
    4.8623    2.8475   -1.7070 H   0  0  0  0  0  0  0  0  0  0  0  0
    5.3811    2.5535   -0.0388 H   0  0  0  0  0  0  0  0  0  0  0  0
    3.6897    2.9500   -0.3964 H   0  0  0  0  0  0  0  0  0  0  0  0
    5.6590    0.6665   -2.5709 H   0  0  0  0  0  0  0  0  0  0  0  0
    6.3419    0.2769   -0.9823 H   0  0  0  0  0  0  0  0  0  0  0  0
    5.2194   -0.8473   -1.7696 H   0  0  0  0  0  0  0  0  0  0  0  0
   -2.4781   -4.1336    0.8296 H   0  0  0  0  0  0  0  0  0  0  0  0
    2.0405   -5.2882    0.2801 H   0  0  0  0  0  0  0  0  0  0  0  0
    2.7284   -3.7946    0.9810 H   0  0  0  0  0  0  0  0  0  0  0  0
    1.9884   -5.0184    2.0546 H   0  0  0  0  0  0  0  0  0  0  0  0
   -2.0281    1.4721   -0.5801 H   0  0  0  0  0  0  0  0  0  0  0  0
   -3.4335    3.4052   -1.0345 H   0  0  0  0  0  0  0  0  0  0  0  0
  1  2  1  0
  2  3  2  0
  3  4  1  0
  4  5  2  0
  5  6  1  0
  6  7  1  0
  7  8  2  0
  8  9  1  0
  9 10  1  0
 10 11  1  0
 11 12  1  0
 12 13  1  0
 13 14  1  0
 13 15  1  0
  9 16  2  0
 16 17  1  0
 17 18  2  0
 18 19  1  0
 19 20  2  0
 20 21  1  0
 21 22  1  0
  5 23  1  0
 23 24  2  0
 24  2  1  0
 18  7  1  0
 21 17  1  0
  1 25  1  0
  1 26  1  0
  1 27  1  0
  3 28  1  0
  4 29  1  0
  6 30  1  0
 10 31  1  0
 11 32  1  0
 11 33  1  0
 12 34  1  0
 12 35  1  0
 13 36  1  0
 14 37  1  0
 14 38  1  0
 14 39  1  0
 15 40  1  0
 15 41  1  0
 15 42  1  0
 19 43  1  0
 22 44  1  0
 22 45  1  0
 22 46  1  0
 23 47  1  0
 24 48  1  0
M  END
>  <ScrubInfo>  (1) 
{"isomerGroup": 0, "isomerId": 0, "confId": 0, "nr_conformers:": 1, "nr_isomers:": 9}

$$$$
_i1
     RDKit          3D

 48 50  0  0  0  0  0  0  0  0999 V2000
    0.5228    0.1452    0.0613 N   0  0  0  0  0  0  0  0  0  0  0  0
    1.3367   -0.9277    0.3190 C   0  0  0  0  0  0  0  0  0  0  0  0
    2.6658   -0.7571    0.0525 N   0  0  0  0  0  0  0  0  0  0  0  0
    3.4159    0.3912    0.5408 C   0  0  0  0  0  0  0  0  0  0  0  0
    4.8643    0.3342    0.0482 C   0  0  0  0  0  0  0  0  0  0  0  0
    5.0333    0.3715   -1.4843 C   0  0  0  0  0  0  0  0  0  0  0  0
    6.5161    0.2408   -1.8431 C   0  0  0  0  0  0  0  0  0  0  0  0
    4.4622    1.6469   -2.1053 C   0  0  0  0  0  0  0  0  0  0  0  0
    0.9116   -2.0781    0.7765 N   0  0  0  0  0  0  0  0  0  0  0  0
   -0.4360   -2.0646    0.9852 C   0  0  0  0  0  0  0  0  0  0  0  0
   -1.3364   -1.0345    0.7545 C   0  0  0  0  0  0  0  0  0  0  0  0
   -2.5774   -1.5628    1.1522 C   0  0  0  0  0  0  0  0  0  0  0  0
   -2.4862   -2.8220    1.5997 N   0  0  0  0  0  0  0  0  0  0  0  0
   -1.1694   -3.1056    1.4811 N   0  0  0  0  0  0  0  0  0  0  0  0
   -0.6902   -4.4067    1.8737 C   0  0  0  0  0  0  0  0  0  0  0  0
   -0.8427    0.2162    0.2105 C   0  0  0  0  0  0  0  0  0  0  0  0
   -1.5075    1.2802   -0.1238 N   0  0  0  0  0  0  0  0  0  0  0  0
   -2.8945    1.3573    0.0118 C   0  0  0  0  0  0  0  0  0  0  0  0
   -3.4597    1.8936    1.1705 C   0  0  0  0  0  0  0  0  0  0  0  0
   -4.8472    1.9968    1.2992 C   0  0  0  0  0  0  0  0  0  0  0  0
   -5.6876    1.5692    0.2644 C   0  0  0  0  0  0  0  0  0  0  0  0
   -7.1761    1.7084    0.3879 C   0  0  0  0  0  0  0  0  0  0  0  0
   -5.1176    1.0699   -0.9127 C   0  0  0  0  0  0  0  0  0  0  0  0
   -3.7296    0.9686   -1.0377 C   0  0  0  0  0  0  0  0  0  0  0  0
    0.9228    0.9234   -0.4353 H   0  0  0  0  0  0  0  0  0  0  0  0
    3.1462   -1.6291    0.2687 H   0  0  0  0  0  0  0  0  0  0  0  0
    2.9499    1.3316    0.2313 H   0  0  0  0  0  0  0  0  0  0  0  0
    3.4138    0.3776    1.6372 H   0  0  0  0  0  0  0  0  0  0  0  0
    5.3311   -0.5821    0.4332 H   0  0  0  0  0  0  0  0  0  0  0  0
    5.4135    1.1731    0.4947 H   0  0  0  0  0  0  0  0  0  0  0  0
    4.5106   -0.4868   -1.9240 H   0  0  0  0  0  0  0  0  0  0  0  0
    6.6537    0.2234   -2.9295 H   0  0  0  0  0  0  0  0  0  0  0  0
    6.9336   -0.6881   -1.4402 H   0  0  0  0  0  0  0  0  0  0  0  0
    7.0980    1.0773   -1.4412 H   0  0  0  0  0  0  0  0  0  0  0  0
    4.6655    1.6796   -3.1812 H   0  0  0  0  0  0  0  0  0  0  0  0
    3.3764    1.6989   -1.9808 H   0  0  0  0  0  0  0  0  0  0  0  0
    4.9024    2.5412   -1.6514 H   0  0  0  0  0  0  0  0  0  0  0  0
   -3.5546   -1.1001    1.1438 H   0  0  0  0  0  0  0  0  0  0  0  0
   -0.8603   -4.5249    2.9468 H   0  0  0  0  0  0  0  0  0  0  0  0
    0.3758   -4.4979    1.6546 H   0  0  0  0  0  0  0  0  0  0  0  0
   -1.2467   -5.1625    1.3135 H   0  0  0  0  0  0  0  0  0  0  0  0
   -2.8154    2.2327    1.9767 H   0  0  0  0  0  0  0  0  0  0  0  0
   -5.2661    2.4157    2.2113 H   0  0  0  0  0  0  0  0  0  0  0  0
   -7.6899    0.9288   -0.1844 H   0  0  0  0  0  0  0  0  0  0  0  0
   -7.4925    2.6876    0.0157 H   0  0  0  0  0  0  0  0  0  0  0  0
   -7.4925    1.6066    1.4313 H   0  0  0  0  0  0  0  0  0  0  0  0
   -5.7491    0.7588   -1.7417 H   0  0  0  0  0  0  0  0  0  0  0  0
   -3.2964    0.5844   -1.9570 H   0  0  0  0  0  0  0  0  0  0  0  0
  1  2  1  0
  2  3  1  0
  3  4  1  0
  4  5  1  0
  5  6  1  0
  6  7  1  0
  6  8  1  0
  2  9  2  0
  9 10  1  0
 10 11  2  0
 11 12  1  0
 12 13  2  0
 13 14  1  0
 14 15  1  0
 11 16  1  0
 16 17  2  3
 17 18  1  0
 18 19  2  0
 19 20  1  0
 20 21  2  0
 21 22  1  0
 21 23  1  0
 23 24  2  0
 16  1  1  0
 24 18  1  0
 14 10  1  0
  1 25  1  0
  3 26  1  0
  4 27  1  0
  4 28  1  0
  5 29  1  0
  5 30  1  0
  6 31  1  0
  7 32  1  0
  7 33  1  0
  7 34  1  0
  8 35  1  0
  8 36  1  0
  8 37  1  0
 12 38  1  0
 15 39  1  0
 15 40  1  0
 15 41  1  0
 19 42  1  0
 20 43  1  0
 22 44  1  0
 22 45  1  0
 22 46  1  0
 23 47  1  0
 24 48  1  0
M  END
>  <ScrubInfo>  (2) 
{"isomerGroup": 0, "isomerId": 1, "confId": 0, "nr_conformers:": 1, "nr_isomers:": 9}

$$$$
_i2
     RDKit          3D

 48 50  0  0  0  0  0  0  0  0999 V2000
   -0.3069    0.3423    0.2994 N   0  0  0  0  0  0  0  0  0  0  0  0
    0.9547   -0.1273    0.6170 C   0  0  0  0  0  0  0  0  0  0  0  0
    1.9717    0.7455    0.9534 N   0  0  0  0  0  0  0  0  0  0  0  0
    3.2561    0.8191    0.3669 C   0  0  0  0  0  0  0  0  0  0  0  0
    4.2241    1.6172    0.9928 C   0  0  0  0  0  0  0  0  0  0  0  0
    5.5260    1.7034    0.4898 C   0  0  0  0  0  0  0  0  0  0  0  0
    5.8890    0.9934   -0.6572 C   0  0  0  0  0  0  0  0  0  0  0  0
    7.2932    1.0550   -1.1804 C   0  0  0  0  0  0  0  0  0  0  0  0
    4.9367    0.1774   -1.2743 C   0  0  0  0  0  0  0  0  0  0  0  0
    3.6350    0.0925   -0.7673 C   0  0  0  0  0  0  0  0  0  0  0  0
    1.0806   -1.4594    0.6467 C   0  0  0  0  0  0  0  0  0  0  0  0
    2.1080   -2.4484    0.9908 C   0  0  0  0  0  0  0  0  0  0  0  0
    1.6888   -3.6837    0.8709 N   0  0  0  0  0  0  0  0  0  0  0  0
    0.3691   -3.5856    0.3971 N   0  0  0  0  0  0  0  0  0  0  0  0
   -0.4865   -4.7454    0.4677 C   0  0  0  0  0  0  0  0  0  0  0  0
   -0.0924   -2.2829    0.2947 C   0  0  0  0  0  0  0  0  0  0  0  0
   -1.2578   -1.8304   -0.0163 N   0  0  0  0  0  0  0  0  0  0  0  0
   -1.3799   -0.4584   -0.0311 C   0  0  0  0  0  0  0  0  0  0  0  0
   -2.5509   -0.0571   -0.3760 N   0  0  0  0  0  0  0  0  0  0  0  0
   -2.8364    1.3691   -0.4276 C   0  0  0  0  0  0  0  0  0  0  0  0
   -4.3092    1.5832   -0.7878 C   0  0  0  0  0  0  0  0  0  0  0  0
   -5.2861    1.4661    0.4003 C   0  0  0  0  0  0  0  0  0  0  0  0
   -5.3014    0.0761    1.0358 C   0  0  0  0  0  0  0  0  0  0  0  0
   -6.6997    1.8355   -0.0596 C   0  0  0  0  0  0  0  0  0  0  0  0
   -0.4060    1.3368    0.1895 H   0  0  0  0  0  0  0  0  0  0  0  0
    1.6459    1.6668    1.2297 H   0  0  0  0  0  0  0  0  0  0  0  0
    3.9763    2.1706    1.8957 H   0  0  0  0  0  0  0  0  0  0  0  0
    6.2552    2.3250    1.0050 H   0  0  0  0  0  0  0  0  0  0  0  0
    7.9011    0.2739   -0.7136 H   0  0  0  0  0  0  0  0  0  0  0  0
    7.3116    0.9167   -2.2666 H   0  0  0  0  0  0  0  0  0  0  0  0
    7.7461    2.0296   -0.9698 H   0  0  0  0  0  0  0  0  0  0  0  0
    5.1987   -0.3993   -2.1592 H   0  0  0  0  0  0  0  0  0  0  0  0
    2.9242   -0.5362   -1.2966 H   0  0  0  0  0  0  0  0  0  0  0  0
    3.1039   -2.1403    1.3340 H   0  0  0  0  0  0  0  0  0  0  0  0
   -1.2958   -4.6790   -0.2665 H   0  0  0  0  0  0  0  0  0  0  0  0
    0.0803   -5.6582    0.2572 H   0  0  0  0  0  0  0  0  0  0  0  0
   -0.9272   -4.8338    1.4656 H   0  0  0  0  0  0  0  0  0  0  0  0
   -2.6103    1.8614    0.5254 H   0  0  0  0  0  0  0  0  0  0  0  0
   -2.2228    1.8319   -1.2100 H   0  0  0  0  0  0  0  0  0  0  0  0
   -4.6052    0.8919   -1.5874 H   0  0  0  0  0  0  0  0  0  0  0  0
   -4.4027    2.5968   -1.1997 H   0  0  0  0  0  0  0  0  0  0  0  0
   -4.9873    2.1890    1.1701 H   0  0  0  0  0  0  0  0  0  0  0  0
   -6.0827    0.0068    1.8008 H   0  0  0  0  0  0  0  0  0  0  0  0
   -5.4918   -0.7014    0.2886 H   0  0  0  0  0  0  0  0  0  0  0  0
   -4.3515   -0.1445    1.5313 H   0  0  0  0  0  0  0  0  0  0  0  0
   -7.0613    1.1428   -0.8272 H   0  0  0  0  0  0  0  0  0  0  0  0
   -7.4024    1.8082    0.7801 H   0  0  0  0  0  0  0  0  0  0  0  0
   -6.7219    2.8475   -0.4775 H   0  0  0  0  0  0  0  0  0  0  0  0
  1  2  1  0
  2  3  1  0
  3  4  1  0
  4  5  2  0
  5  6  1  0
  6  7  2  0
  7  8  1  0
  7  9  1  0
  9 10  2  0
  2 11  2  0
 11 12  1  0
 12 13  2  0
 13 14  1  0
 14 15  1  0
 14 16  1  0
 16 17  2  0
 17 18  1  0
 18 19  2  3
 19 20  1  0
 20 21  1  0
 21 22  1  0
 22 23  1  0
 22 24  1  0
 18  1  1  0
 10  4  1  0
 16 11  1  0
  1 25  1  0
  3 26  1  0
  5 27  1  0
  6 28  1  0
  8 29  1  0
  8 30  1  0
  8 31  1  0
  9 32  1  0
 10 33  1  0
 12 34  1  0
 15 35  1  0
 15 36  1  0
 15 37  1  0
 20 38  1  0
 20 39  1  0
 21 40  1  0
 21 41  1  0
 22 42  1  0
 23 43  1  0
 23 44  1  0
 23 45  1  0
 24 46  1  0
 24 47  1  0
 24 48  1  0
M  END
>  <ScrubInfo>  (3) 
{"isomerGroup": 0, "isomerId": 2, "confId": 0, "nr_conformers:": 1, "nr_isomers:": 9}

$$$$
_i3
     RDKit          3D

 48 50  0  0  0  0  0  0  0  0999 V2000
    0.9997   -2.4486   -0.4620 N   0  0  0  0  0  0  0  0  0  0  0  0
    1.3644   -1.2143    0.0314 C   0  0  0  0  0  0  0  0  0  0  0  0
    2.5947   -0.8421   -0.1159 N   0  0  0  0  0  0  0  0  0  0  0  0
    2.9595    0.4729    0.4157 C   0  0  0  0  0  0  0  0  0  0  0  0
    4.4484    0.6964    0.1401 C   0  0  0  0  0  0  0  0  0  0  0  0
    5.0042    1.9858    0.7708 C   0  0  0  0  0  0  0  0  0  0  0  0
    4.3486    3.2443    0.2006 C   0  0  0  0  0  0  0  0  0  0  0  0
    6.5193    2.0535    0.5640 C   0  0  0  0  0  0  0  0  0  0  0  0
    0.4538   -0.3830    0.6694 N   0  0  0  0  0  0  0  0  0  0  0  0
   -0.7855   -0.7741    0.7881 C   0  0  0  0  0  0  0  0  0  0  0  0
   -1.7433   -0.0243    1.4228 N   0  0  0  0  0  0  0  0  0  0  0  0
   -2.9298    0.4438    0.7997 C   0  0  0  0  0  0  0  0  0  0  0  0
   -3.1076    0.4777   -0.5880 C   0  0  0  0  0  0  0  0  0  0  0  0
   -4.2894    0.9784   -1.1439 C   0  0  0  0  0  0  0  0  0  0  0  0
   -5.3152    1.4570   -0.3228 C   0  0  0  0  0  0  0  0  0  0  0  0
   -6.5684    2.0225   -0.9223 C   0  0  0  0  0  0  0  0  0  0  0  0
   -5.1284    1.4561    1.0625 C   0  0  0  0  0  0  0  0  0  0  0  0
   -3.9468    0.9553    1.6162 C   0  0  0  0  0  0  0  0  0  0  0  0
   -1.2019   -2.0742    0.3109 C   0  0  0  0  0  0  0  0  0  0  0  0
   -2.3668   -2.8564    0.3009 C   0  0  0  0  0  0  0  0  0  0  0  0
   -2.1780   -4.0446   -0.2966 N   0  0  0  0  0  0  0  0  0  0  0  0
   -0.8715   -4.0212   -0.6606 N   0  0  0  0  0  0  0  0  0  0  0  0
   -0.3088   -5.1642   -1.3328 C   0  0  0  0  0  0  0  0  0  0  0  0
   -0.2670   -2.8589   -0.3052 C   0  0  0  0  0  0  0  0  0  0  0  0
    1.7514   -2.9713   -0.8910 H   0  0  0  0  0  0  0  0  0  0  0  0
    2.7821    0.5138    1.4971 H   0  0  0  0  0  0  0  0  0  0  0  0
    2.3704    1.2545   -0.0767 H   0  0  0  0  0  0  0  0  0  0  0  0
    5.0104   -0.1625    0.5310 H   0  0  0  0  0  0  0  0  0  0  0  0
    4.6199    0.7045   -0.9443 H   0  0  0  0  0  0  0  0  0  0  0  0
    4.8139    1.9593    1.8512 H   0  0  0  0  0  0  0  0  0  0  0  0
    4.8108    4.1457    0.6177 H   0  0  0  0  0  0  0  0  0  0  0  0
    4.4504    3.2862   -0.8891 H   0  0  0  0  0  0  0  0  0  0  0  0
    3.2832    3.2849    0.4461 H   0  0  0  0  0  0  0  0  0  0  0  0
    6.9380    2.9461    1.0409 H   0  0  0  0  0  0  0  0  0  0  0  0
    6.7742    2.0867   -0.5008 H   0  0  0  0  0  0  0  0  0  0  0  0
    7.0118    1.1799    1.0039 H   0  0  0  0  0  0  0  0  0  0  0  0
   -1.2967    0.7790    1.8610 H   0  0  0  0  0  0  0  0  0  0  0  0
   -2.3294    0.1293   -1.2625 H   0  0  0  0  0  0  0  0  0  0  0  0
   -4.4000    0.9939   -2.2262 H   0  0  0  0  0  0  0  0  0  0  0  0
   -6.4435    3.0934   -1.1097 H   0  0  0  0  0  0  0  0  0  0  0  0
   -7.4220    1.8773   -0.2519 H   0  0  0  0  0  0  0  0  0  0  0  0
   -6.8092    1.5232   -1.8668 H   0  0  0  0  0  0  0  0  0  0  0  0
   -5.9023    1.8430    1.7218 H   0  0  0  0  0  0  0  0  0  0  0  0
   -3.8298    0.9555    2.6976 H   0  0  0  0  0  0  0  0  0  0  0  0
   -3.3456   -2.6197    0.6980 H   0  0  0  0  0  0  0  0  0  0  0  0
   -0.8866   -5.3488   -2.2420 H   0  0  0  0  0  0  0  0  0  0  0  0
    0.7338   -4.9682   -1.5918 H   0  0  0  0  0  0  0  0  0  0  0  0
   -0.3695   -6.0231   -0.6599 H   0  0  0  0  0  0  0  0  0  0  0  0
  1  2  1  0
  2  3  2  3
  3  4  1  0
  4  5  1  0
  5  6  1  0
  6  7  1  0
  6  8  1  0
  2  9  1  0
  9 10  2  0
 10 11  1  0
 11 12  1  0
 12 13  2  0
 13 14  1  0
 14 15  2  0
 15 16  1  0
 15 17  1  0
 17 18  2  0
 10 19  1  0
 19 20  1  0
 20 21  2  0
 21 22  1  0
 22 23  1  0
 22 24  1  0
 24  1  1  0
 18 12  1  0
 24 19  2  0
  1 25  1  0
  4 26  1  0
  4 27  1  0
  5 28  1  0
  5 29  1  0
  6 30  1  0
  7 31  1  0
  7 32  1  0
  7 33  1  0
  8 34  1  0
  8 35  1  0
  8 36  1  0
 11 37  1  0
 13 38  1  0
 14 39  1  0
 16 40  1  0
 16 41  1  0
 16 42  1  0
 17 43  1  0
 18 44  1  0
 20 45  1  0
 23 46  1  0
 23 47  1  0
 23 48  1  0
M  END
>  <ScrubInfo>  (4) 
{"isomerGroup": 0, "isomerId": 3, "confId": 0, "nr_conformers:": 1, "nr_isomers:": 9}

$$$$
_i4
     RDKit          3D

 48 50  0  0  0  0  0  0  0  0999 V2000
    0.5989   -2.1465   -0.8532 N   0  0  0  0  0  0  0  0  0  0  0  0
    0.1480   -0.8644   -0.6373 C   0  0  0  0  0  0  0  0  0  0  0  0
    1.0684    0.1208   -0.8577 N   0  0  0  0  0  0  0  0  0  0  0  0
    2.3670    0.1088   -0.1937 C   0  0  0  0  0  0  0  0  0  0  0  0
    3.1658    1.3432   -0.6181 C   0  0  0  0  0  0  0  0  0  0  0  0
    4.6092    1.3535   -0.0830 C   0  0  0  0  0  0  0  0  0  0  0  0
    4.6646    1.4059    1.4444 C   0  0  0  0  0  0  0  0  0  0  0  0
    5.3717    2.5443   -0.6690 C   0  0  0  0  0  0  0  0  0  0  0  0
   -1.0577   -0.5319   -0.2659 N   0  0  0  0  0  0  0  0  0  0  0  0
   -1.9970   -1.5320   -0.0472 C   0  0  0  0  0  0  0  0  0  0  0  0
   -3.2099   -1.3236    0.3544 N   0  0  0  0  0  0  0  0  0  0  0  0
   -3.6115   -0.0018    0.5895 C   0  0  0  0  0  0  0  0  0  0  0  0
   -4.1469    0.7722   -0.4422 C   0  0  0  0  0  0  0  0  0  0  0  0
   -4.5779    2.0794   -0.1994 C   0  0  0  0  0  0  0  0  0  0  0  0
   -4.4996    2.6227    1.0885 C   0  0  0  0  0  0  0  0  0  0  0  0
   -4.9320    4.0356    1.3448 C   0  0  0  0  0  0  0  0  0  0  0  0
   -3.9646    1.8454    2.1226 C   0  0  0  0  0  0  0  0  0  0  0  0
   -3.5345    0.5389    1.8745 C   0  0  0  0  0  0  0  0  0  0  0  0
   -1.5779   -2.8888   -0.2925 C   0  0  0  0  0  0  0  0  0  0  0  0
   -2.1800   -4.1529   -0.2433 C   0  0  0  0  0  0  0  0  0  0  0  0
   -1.3325   -5.1337   -0.5982 N   0  0  0  0  0  0  0  0  0  0  0  0
   -0.1775   -4.4784   -0.8768 N   0  0  0  0  0  0  0  0  0  0  0  0
    0.9731   -5.2356   -1.2976 C   0  0  0  0  0  0  0  0  0  0  0  0
   -0.2945   -3.1378   -0.6928 C   0  0  0  0  0  0  0  0  0  0  0  0
    1.4764   -2.2497   -1.3435 H   0  0  0  0  0  0  0  0  0  0  0  0
    0.5973    1.0126   -0.7048 H   0  0  0  0  0  0  0  0  0  0  0  0
    2.9232   -0.7954   -0.4635 H   0  0  0  0  0  0  0  0  0  0  0  0
    2.2128    0.1039    0.8905 H   0  0  0  0  0  0  0  0  0  0  0  0
    3.1926    1.3851   -1.7153 H   0  0  0  0  0  0  0  0  0  0  0  0
    2.6398    2.2497   -0.2906 H   0  0  0  0  0  0  0  0  0  0  0  0
    5.1136    0.4366   -0.4135 H   0  0  0  0  0  0  0  0  0  0  0  0
    4.2372    0.5026    1.8899 H   0  0  0  0  0  0  0  0  0  0  0  0
    5.7005    1.4792    1.7929 H   0  0  0  0  0  0  0  0  0  0  0  0
    4.1161    2.2710    1.8321 H   0  0  0  0  0  0  0  0  0  0  0  0
    6.4129    2.5454   -0.3293 H   0  0  0  0  0  0  0  0  0  0  0  0
    5.3794    2.5015   -1.7633 H   0  0  0  0  0  0  0  0  0  0  0  0
    4.9163    3.4944   -0.3695 H   0  0  0  0  0  0  0  0  0  0  0  0
   -4.2223    0.3536   -1.4415 H   0  0  0  0  0  0  0  0  0  0  0  0
   -4.9786    2.6661   -1.0223 H   0  0  0  0  0  0  0  0  0  0  0  0
   -5.7481    4.3224    0.6734 H   0  0  0  0  0  0  0  0  0  0  0  0
   -5.2992    4.1520    2.3699 H   0  0  0  0  0  0  0  0  0  0  0  0
   -4.0905    4.7180    1.1907 H   0  0  0  0  0  0  0  0  0  0  0  0
   -3.8830    2.2477    3.1292 H   0  0  0  0  0  0  0  0  0  0  0  0
   -3.1334   -0.0628    2.6847 H   0  0  0  0  0  0  0  0  0  0  0  0
   -3.1975   -4.4028    0.0292 H   0  0  0  0  0  0  0  0  0  0  0  0
    1.8342   -4.5732   -1.4090 H   0  0  0  0  0  0  0  0  0  0  0  0
    1.1863   -5.9923   -0.5383 H   0  0  0  0  0  0  0  0  0  0  0  0
    0.7414   -5.7088   -2.2550 H   0  0  0  0  0  0  0  0  0  0  0  0
  1  2  1  0
  2  3  1  0
  3  4  1  0
  4  5  1  0
  5  6  1  0
  6  7  1  0
  6  8  1  0
  2  9  2  0
  9 10  1  0
 10 11  2  3
 11 12  1  0
 12 13  2  0
 13 14  1  0
 14 15  2  0
 15 16  1  0
 15 17  1  0
 17 18  2  0
 10 19  1  0
 19 20  1  0
 20 21  2  0
 21 22  1  0
 22 23  1  0
 22 24  1  0
 24  1  1  0
 18 12  1  0
 24 19  2  0
  1 25  1  0
  3 26  1  0
  4 27  1  0
  4 28  1  0
  5 29  1  0
  5 30  1  0
  6 31  1  0
  7 32  1  0
  7 33  1  0
  7 34  1  0
  8 35  1  0
  8 36  1  0
  8 37  1  0
 13 38  1  0
 14 39  1  0
 16 40  1  0
 16 41  1  0
 16 42  1  0
 17 43  1  0
 18 44  1  0
 20 45  1  0
 23 46  1  0
 23 47  1  0
 23 48  1  0
M  END
>  <ScrubInfo>  (5) 
{"isomerGroup": 0, "isomerId": 4, "confId": 0, "nr_conformers:": 1, "nr_isomers:": 9}

$$$$
_i5
     RDKit          3D

 48 50  0  0  0  0  0  0  0  0999 V2000
    1.9399   -2.0478   -1.8775 N   0  0  0  0  0  0  0  0  0  0  0  0
    2.2896   -1.0194   -1.0079 C   0  0  0  0  0  0  0  0  0  0  0  0
    1.2485   -0.5163   -0.3266 C   0  0  0  0  0  0  0  0  0  0  0  0
    0.9783    0.4870    0.6956 C   0  0  0  0  0  0  0  0  0  0  0  0
    1.7653    1.3301    1.2772 N   0  0  0  0  0  0  0  0  0  0  0  0
    3.1194    1.3870    0.9421 C   0  0  0  0  0  0  0  0  0  0  0  0
    3.5596    2.2316   -0.0791 C   0  0  0  0  0  0  0  0  0  0  0  0
    4.9161    2.2998   -0.4069 C   0  0  0  0  0  0  0  0  0  0  0  0
    5.8519    1.5253    0.2894 C   0  0  0  0  0  0  0  0  0  0  0  0
    7.3133    1.6279   -0.0333 C   0  0  0  0  0  0  0  0  0  0  0  0
    5.4135    0.7097    1.3395 C   0  0  0  0  0  0  0  0  0  0  0  0
    4.0560    0.6449    1.6641 C   0  0  0  0  0  0  0  0  0  0  0  0
   -0.3297    0.5265    1.1014 N   0  0  0  0  0  0  0  0  0  0  0  0
   -1.2592   -0.2252    0.5902 C   0  0  0  0  0  0  0  0  0  0  0  0
   -2.5110   -0.0578    1.1053 N   0  0  0  0  0  0  0  0  0  0  0  0
   -3.5397   -1.0685    1.0274 C   0  0  0  0  0  0  0  0  0  0  0  0
   -4.8737   -0.5429    1.5663 C   0  0  0  0  0  0  0  0  0  0  0  0
   -5.6516    0.4449    0.6710 C   0  0  0  0  0  0  0  0  0  0  0  0
   -4.9366    1.7812    0.4778 C   0  0  0  0  0  0  0  0  0  0  0  0
   -6.0233   -0.1603   -0.6831 C   0  0  0  0  0  0  0  0  0  0  0  0
   -1.0769   -1.1504   -0.4019 N   0  0  0  0  0  0  0  0  0  0  0  0
    0.1149   -1.2900   -0.8665 C   0  0  0  0  0  0  0  0  0  0  0  0
    0.5560   -2.1414   -1.8808 N   0  0  0  0  0  0  0  0  0  0  0  0
   -0.0647   -3.4342   -2.0937 C   0  0  0  0  0  0  0  0  0  0  0  0
    2.3881   -1.9690   -2.7933 H   0  0  0  0  0  0  0  0  0  0  0  0
    3.3274   -0.7241   -0.9576 H   0  0  0  0  0  0  0  0  0  0  0  0
    2.8401    2.8455   -0.6145 H   0  0  0  0  0  0  0  0  0  0  0  0
    5.2367    2.9697   -1.2014 H   0  0  0  0  0  0  0  0  0  0  0  0
    7.8270    0.6845    0.1796 H   0  0  0  0  0  0  0  0  0  0  0  0
    7.7730    2.4235    0.5609 H   0  0  0  0  0  0  0  0  0  0  0  0
    7.4639    1.8467   -1.0957 H   0  0  0  0  0  0  0  0  0  0  0  0
    6.1256    0.1268    1.9193 H   0  0  0  0  0  0  0  0  0  0  0  0
    3.7238    0.0190    2.4880 H   0  0  0  0  0  0  0  0  0  0  0  0
   -2.4880    0.4975    1.9526 H   0  0  0  0  0  0  0  0  0  0  0  0
   -3.2316   -1.9235    1.6411 H   0  0  0  0  0  0  0  0  0  0  0  0
   -3.6579   -1.4350    0.0030 H   0  0  0  0  0  0  0  0  0  0  0  0
   -4.7151   -0.0808    2.5496 H   0  0  0  0  0  0  0  0  0  0  0  0
   -5.5232   -1.4109    1.7419 H   0  0  0  0  0  0  0  0  0  0  0  0
   -6.5921    0.6599    1.1964 H   0  0  0  0  0  0  0  0  0  0  0  0
   -4.0570    1.6857   -0.1659 H   0  0  0  0  0  0  0  0  0  0  0  0
   -5.6076    2.5064    0.0041 H   0  0  0  0  0  0  0  0  0  0  0  0
   -4.6215    2.2004    1.4389 H   0  0  0  0  0  0  0  0  0  0  0  0
   -6.5266   -1.1242   -0.5555 H   0  0  0  0  0  0  0  0  0  0  0  0
   -6.7072    0.5030   -1.2239 H   0  0  0  0  0  0  0  0  0  0  0  0
   -5.1440   -0.3129   -1.3168 H   0  0  0  0  0  0  0  0  0  0  0  0
    0.1001   -4.0915   -1.2336 H   0  0  0  0  0  0  0  0  0  0  0  0
   -1.1427   -3.3235   -2.2489 H   0  0  0  0  0  0  0  0  0  0  0  0
    0.3529   -3.9152   -2.9842 H   0  0  0  0  0  0  0  0  0  0  0  0
  1  2  1  0
  2  3  2  0
  3  4  1  0
  4  5  2  3
  5  6  1  0
  6  7  2  0
  7  8  1  0
  8  9  2  0
  9 10  1  0
  9 11  1  0
 11 12  2  0
  4 13  1  0
 13 14  2  0
 14 15  1  0
 15 16  1  0
 16 17  1  0
 17 18  1  0
 18 19  1  0
 18 20  1  0
 14 21  1  0
 21 22  2  0
 22 23  1  0
 23 24  1  0
 23  1  1  0
 22  3  1  0
 12  6  1  0
  1 25  1  0
  2 26  1  0
  7 27  1  0
  8 28  1  0
 10 29  1  0
 10 30  1  0
 10 31  1  0
 11 32  1  0
 12 33  1  0
 15 34  1  0
 16 35  1  0
 16 36  1  0
 17 37  1  0
 17 38  1  0
 18 39  1  0
 19 40  1  0
 19 41  1  0
 19 42  1  0
 20 43  1  0
 20 44  1  0
 20 45  1  0
 24 46  1  0
 24 47  1  0
 24 48  1  0
M  END
>  <ScrubInfo>  (6) 
{"isomerGroup": 0, "isomerId": 5, "confId": 0, "nr_conformers:": 1, "nr_isomers:": 9}

$$$$
_i6
     RDKit          3D

 48 50  0  0  0  0  0  0  0  0999 V2000
   -1.8595    4.9131    1.9658 N   0  0  0  0  0  0  0  0  0  0  0  0
   -2.3032    3.6031    1.8196 C   0  0  0  0  0  0  0  0  0  0  0  0
   -1.3548    2.7781    1.3531 C   0  0  0  0  0  0  0  0  0  0  0  0
   -1.2166    1.3668    0.9758 C   0  0  0  0  0  0  0  0  0  0  0  0
   -2.2978    0.5202    1.1453 N   0  0  0  0  0  0  0  0  0  0  0  0
   -2.4623   -0.8304    0.7798 C   0  0  0  0  0  0  0  0  0  0  0  0
   -1.5450   -1.5617    0.0220 C   0  0  0  0  0  0  0  0  0  0  0  0
   -1.7630   -2.9116   -0.2842 C   0  0  0  0  0  0  0  0  0  0  0  0
   -2.9132   -3.5667    0.1600 C   0  0  0  0  0  0  0  0  0  0  0  0
   -3.1265   -5.0202   -0.1388 C   0  0  0  0  0  0  0  0  0  0  0  0
   -3.8287   -2.8567    0.9377 C   0  0  0  0  0  0  0  0  0  0  0  0
   -3.6049   -1.5082    1.2394 C   0  0  0  0  0  0  0  0  0  0  0  0
   -0.0600    0.9958    0.5066 N   0  0  0  0  0  0  0  0  0  0  0  0
    0.9620    1.9119    0.3725 C   0  0  0  0  0  0  0  0  0  0  0  0
    2.0761    1.5468   -0.1584 N   0  0  0  0  0  0  0  0  0  0  0  0
    2.1945    0.1562   -0.5944 C   0  0  0  0  0  0  0  0  0  0  0  0
    3.6056   -0.0472   -1.1519 C   0  0  0  0  0  0  0  0  0  0  0  0
    3.9117   -1.4668   -1.6651 C   0  0  0  0  0  0  0  0  0  0  0  0
    3.8335   -2.5163   -0.5563 C   0  0  0  0  0  0  0  0  0  0  0  0
    3.0196   -1.8661   -2.8407 C   0  0  0  0  0  0  0  0  0  0  0  0
    0.9391    3.2305    0.7570 N   0  0  0  0  0  0  0  0  0  0  0  0
   -0.1714    3.6574    1.2439 C   0  0  0  0  0  0  0  0  0  0  0  0
   -0.4908    4.9284    1.7219 N   0  0  0  0  0  0  0  0  0  0  0  0
    0.1173    6.1132    1.1462 C   0  0  0  0  0  0  0  0  0  0  0  0
   -2.1623    5.3576    2.8358 H   0  0  0  0  0  0  0  0  0  0  0  0
   -3.3255    3.3721    2.0794 H   0  0  0  0  0  0  0  0  0  0  0  0
   -3.1286    0.9201    1.5593 H   0  0  0  0  0  0  0  0  0  0  0  0
   -0.6399   -1.1037   -0.3615 H   0  0  0  0  0  0  0  0  0  0  0  0
   -1.0197   -3.4428   -0.8751 H   0  0  0  0  0  0  0  0  0  0  0  0
   -2.6819   -5.2902   -1.1024 H   0  0  0  0  0  0  0  0  0  0  0  0
   -4.1946   -5.2543   -0.1974 H   0  0  0  0  0  0  0  0  0  0  0  0
   -2.6723   -5.6341    0.6451 H   0  0  0  0  0  0  0  0  0  0  0  0
   -4.7220   -3.3465    1.3184 H   0  0  0  0  0  0  0  0  0  0  0  0
   -4.3411   -0.9938    1.8521 H   0  0  0  0  0  0  0  0  0  0  0  0
    1.4564   -0.0553   -1.3757 H   0  0  0  0  0  0  0  0  0  0  0  0
    2.0312   -0.5218    0.2505 H   0  0  0  0  0  0  0  0  0  0  0  0
    4.3364    0.2135   -0.3747 H   0  0  0  0  0  0  0  0  0  0  0  0
    3.7720    0.6678   -1.9687 H   0  0  0  0  0  0  0  0  0  0  0  0
    4.9472   -1.4546   -2.0305 H   0  0  0  0  0  0  0  0  0  0  0  0
    2.8080   -2.6576   -0.2003 H   0  0  0  0  0  0  0  0  0  0  0  0
    4.1925   -3.4852   -0.9200 H   0  0  0  0  0  0  0  0  0  0  0  0
    4.4566   -2.2294    0.2971 H   0  0  0  0  0  0  0  0  0  0  0  0
    3.3553   -2.8160   -3.2708 H   0  0  0  0  0  0  0  0  0  0  0  0
    3.0562   -1.1106   -3.6324 H   0  0  0  0  0  0  0  0  0  0  0  0
    1.9759   -1.9933   -2.5357 H   0  0  0  0  0  0  0  0  0  0  0  0
   -0.1892    6.2396    0.1026 H   0  0  0  0  0  0  0  0  0  0  0  0
    1.2091    6.0442    1.1856 H   0  0  0  0  0  0  0  0  0  0  0  0
   -0.1816    7.0047    1.7070 H   0  0  0  0  0  0  0  0  0  0  0  0
  1  2  1  0
  2  3  2  0
  3  4  1  0
  4  5  1  0
  5  6  1  0
  6  7  2  0
  7  8  1  0
  8  9  2  0
  9 10  1  0
  9 11  1  0
 11 12  2  0
  4 13  2  0
 13 14  1  0
 14 15  2  3
 15 16  1  0
 16 17  1  0
 17 18  1  0
 18 19  1  0
 18 20  1  0
 14 21  1  0
 21 22  2  0
 22 23  1  0
 23 24  1  0
 23  1  1  0
 22  3  1  0
 12  6  1  0
  1 25  1  0
  2 26  1  0
  5 27  1  0
  7 28  1  0
  8 29  1  0
 10 30  1  0
 10 31  1  0
 10 32  1  0
 11 33  1  0
 12 34  1  0
 16 35  1  0
 16 36  1  0
 17 37  1  0
 17 38  1  0
 18 39  1  0
 19 40  1  0
 19 41  1  0
 19 42  1  0
 20 43  1  0
 20 44  1  0
 20 45  1  0
 24 46  1  0
 24 47  1  0
 24 48  1  0
M  END
>  <ScrubInfo>  (7) 
{"isomerGroup": 0, "isomerId": 6, "confId": 0, "nr_conformers:": 1, "nr_isomers:": 9}

$$$$
_i7
     RDKit          3D

 48 50  0  0  0  0  0  0  0  0999 V2000
    0.8583    3.1568   -0.2355 N   0  0  0  0  0  0  0  0  0  0  0  0
    0.8739    1.7851   -0.0641 C   0  0  0  0  0  0  0  0  0  0  0  0
    2.0008    1.2150    0.2061 N   0  0  0  0  0  0  0  0  0  0  0  0
    2.0129   -0.2366    0.3867 C   0  0  0  0  0  0  0  0  0  0  0  0
    3.4492   -0.6650    0.6944 C   0  0  0  0  0  0  0  0  0  0  0  0
    3.6527   -2.1754    0.9162 C   0  0  0  0  0  0  0  0  0  0  0  0
    3.3138   -2.9973   -0.3275 C   0  0  0  0  0  0  0  0  0  0  0  0
    2.8778   -2.6956    2.1269 C   0  0  0  0  0  0  0  0  0  0  0  0
   -0.3695    1.1924   -0.2122 N   0  0  0  0  0  0  0  0  0  0  0  0
   -1.6032    1.7517   -0.5001 C   0  0  0  0  0  0  0  0  0  0  0  0
   -2.7657    1.2035   -0.6392 N   0  0  0  0  0  0  0  0  0  0  0  0
   -2.8508   -0.1855   -0.4836 C   0  0  0  0  0  0  0  0  0  0  0  0
   -2.6868   -1.0297   -1.5832 C   0  0  0  0  0  0  0  0  0  0  0  0
   -2.7420   -2.4165   -1.4247 C   0  0  0  0  0  0  0  0  0  0  0  0
   -2.9630   -2.9760   -0.1606 C   0  0  0  0  0  0  0  0  0  0  0  0
   -3.0616   -4.4640    0.0048 C   0  0  0  0  0  0  0  0  0  0  0  0
   -3.1611   -2.1266    0.9344 C   0  0  0  0  0  0  0  0  0  0  0  0
   -3.1052   -0.7402    0.7718 C   0  0  0  0  0  0  0  0  0  0  0  0
   -1.5018    3.1824   -0.6579 C   0  0  0  0  0  0  0  0  0  0  0  0
   -2.4018    4.2186   -0.9451 C   0  0  0  0  0  0  0  0  0  0  0  0
   -1.8008    5.4181   -0.9858 N   0  0  0  0  0  0  0  0  0  0  0  0
   -0.5003    5.1390   -0.7204 N   0  0  0  0  0  0  0  0  0  0  0  0
    0.4507    6.2209   -0.6845 C   0  0  0  0  0  0  0  0  0  0  0  0
   -0.2883    3.8095   -0.5194 C   0  0  0  0  0  0  0  0  0  0  0  0
    1.7628    3.6007   -0.1294 H   0  0  0  0  0  0  0  0  0  0  0  0
    1.6646   -0.7291   -0.5275 H   0  0  0  0  0  0  0  0  0  0  0  0
    1.3547   -0.5147    1.2167 H   0  0  0  0  0  0  0  0  0  0  0  0
    4.1019   -0.3368   -0.1255 H   0  0  0  0  0  0  0  0  0  0  0  0
    3.7979   -0.1265    1.5858 H   0  0  0  0  0  0  0  0  0  0  0  0
    4.7208   -2.3236    1.1241 H   0  0  0  0  0  0  0  0  0  0  0  0
    3.8529   -2.6205   -1.2029 H   0  0  0  0  0  0  0  0  0  0  0  0
    3.6013   -4.0446   -0.1845 H   0  0  0  0  0  0  0  0  0  0  0  0
    2.2421   -2.9773   -0.5497 H   0  0  0  0  0  0  0  0  0  0  0  0
    3.1030   -2.1017    3.0188 H   0  0  0  0  0  0  0  0  0  0  0  0
    1.7961   -2.6687    1.9609 H   0  0  0  0  0  0  0  0  0  0  0  0
    3.1528   -3.7343    2.3403 H   0  0  0  0  0  0  0  0  0  0  0  0
   -0.3921    0.1925   -0.0933 H   0  0  0  0  0  0  0  0  0  0  0  0
   -2.5202   -0.6035   -2.5691 H   0  0  0  0  0  0  0  0  0  0  0  0
   -2.6192   -3.0559   -2.2962 H   0  0  0  0  0  0  0  0  0  0  0  0
   -2.4238   -4.9802   -0.7204 H   0  0  0  0  0  0  0  0  0  0  0  0
   -4.0966   -4.7888   -0.1392 H   0  0  0  0  0  0  0  0  0  0  0  0
   -2.7299   -4.7684    1.0030 H   0  0  0  0  0  0  0  0  0  0  0  0
   -3.3682   -2.5377    1.9201 H   0  0  0  0  0  0  0  0  0  0  0  0
   -3.2655   -0.0879    1.6263 H   0  0  0  0  0  0  0  0  0  0  0  0
   -3.4671    4.1526   -1.1262 H   0  0  0  0  0  0  0  0  0  0  0  0
    1.4476    5.8365   -0.4601 H   0  0  0  0  0  0  0  0  0  0  0  0
    0.1422    6.9245    0.0928 H   0  0  0  0  0  0  0  0  0  0  0  0
    0.4539    6.7088   -1.6624 H   0  0  0  0  0  0  0  0  0  0  0  0
  1  2  1  0
  2  3  2  3
  3  4  1  0
  4  5  1  0
  5  6  1  0
  6  7  1  0
  6  8  1  0
  2  9  1  0
  9 10  1  0
 10 11  2  3
 11 12  1  0
 12 13  2  0
 13 14  1  0
 14 15  2  0
 15 16  1  0
 15 17  1  0
 17 18  2  0
 10 19  1  0
 19 20  1  0
 20 21  2  0
 21 22  1  0
 22 23  1  0
 22 24  1  0
 24  1  1  0
 18 12  1  0
 24 19  2  0
  1 25  1  0
  4 26  1  0
  4 27  1  0
  5 28  1  0
  5 29  1  0
  6 30  1  0
  7 31  1  0
  7 32  1  0
  7 33  1  0
  8 34  1  0
  8 35  1  0
  8 36  1  0
  9 37  1  0
 13 38  1  0
 14 39  1  0
 16 40  1  0
 16 41  1  0
 16 42  1  0
 17 43  1  0
 18 44  1  0
 20 45  1  0
 23 46  1  0
 23 47  1  0
 23 48  1  0
M  END
>  <ScrubInfo>  (8) 
{"isomerGroup": 0, "isomerId": 7, "confId": 0, "nr_conformers:": 1, "nr_isomers:": 9}

$$$$
_i8
     RDKit          3D

 48 50  0  0  0  0  0  0  0  0999 V2000
    0.5119   -4.9387    0.2107 N   0  0  0  0  0  0  0  0  0  0  0  0
    1.4946   -3.9669    0.3650 C   0  0  0  0  0  0  0  0  0  0  0  0
    1.0429   -2.7287    0.1346 C   0  0  0  0  0  0  0  0  0  0  0  0
    1.5744   -1.3645    0.1020 C   0  0  0  0  0  0  0  0  0  0  0  0
    2.8220   -1.1578    0.4027 N   0  0  0  0  0  0  0  0  0  0  0  0
    3.3059    0.1561    0.3643 C   0  0  0  0  0  0  0  0  0  0  0  0
    3.2380    0.9669    1.4985 C   0  0  0  0  0  0  0  0  0  0  0  0
    3.7088    2.2816    1.4577 C   0  0  0  0  0  0  0  0  0  0  0  0
    4.2548    2.8013    0.2781 C   0  0  0  0  0  0  0  0  0  0  0  0
    4.7935    4.2010    0.2426 C   0  0  0  0  0  0  0  0  0  0  0  0
    4.3515    1.9757   -0.8484 C   0  0  0  0  0  0  0  0  0  0  0  0
    3.8794    0.6616   -0.8034 C   0  0  0  0  0  0  0  0  0  0  0  0
    0.6218   -0.4485   -0.2660 N   0  0  0  0  0  0  0  0  0  0  0  0
   -0.6891   -0.7060   -0.5672 C   0  0  0  0  0  0  0  0  0  0  0  0
   -1.4372    0.2908   -0.9074 N   0  0  0  0  0  0  0  0  0  0  0  0
   -2.8421    0.0510   -1.2311 C   0  0  0  0  0  0  0  0  0  0  0  0
   -3.7232    0.0998    0.0205 C   0  0  0  0  0  0  0  0  0  0  0  0
   -3.9108    1.4731    0.6988 C   0  0  0  0  0  0  0  0  0  0  0  0
   -2.6337    2.0097    1.3442 C   0  0  0  0  0  0  0  0  0  0  0  0
   -4.5128    2.5166   -0.2421 C   0  0  0  0  0  0  0  0  0  0  0  0
   -1.2139   -1.9813   -0.5012 N   0  0  0  0  0  0  0  0  0  0  0  0
   -0.4100   -2.9382   -0.1556 C   0  0  0  0  0  0  0  0  0  0  0  0
   -0.7066   -4.2950    0.0013 N   0  0  0  0  0  0  0  0  0  0  0  0
   -1.7111   -4.9390   -0.8229 C   0  0  0  0  0  0  0  0  0  0  0  0
    0.5254   -5.6462    0.9488 H   0  0  0  0  0  0  0  0  0  0  0  0
    2.4977   -4.2568    0.6447 H   0  0  0  0  0  0  0  0  0  0  0  0
    2.8193    0.5703    2.4194 H   0  0  0  0  0  0  0  0  0  0  0  0
    3.6502    2.8947    2.3542 H   0  0  0  0  0  0  0  0  0  0  0  0
    5.8476    4.2038    0.5362 H   0  0  0  0  0  0  0  0  0  0  0  0
    4.2343    4.8518    0.9230 H   0  0  0  0  0  0  0  0  0  0  0  0
    4.7041    4.6283   -0.7617 H   0  0  0  0  0  0  0  0  0  0  0  0
    4.7989    2.3480   -1.7672 H   0  0  0  0  0  0  0  0  0  0  0  0
    3.9617    0.0264   -1.6811 H   0  0  0  0  0  0  0  0  0  0  0  0
    0.8814    0.5242   -0.3354 H   0  0  0  0  0  0  0  0  0  0  0  0
   -2.9841   -0.9070   -1.7467 H   0  0  0  0  0  0  0  0  0  0  0  0
   -3.1623    0.8076   -1.9548 H   0  0  0  0  0  0  0  0  0  0  0  0
   -3.3449   -0.6110    0.7659 H   0  0  0  0  0  0  0  0  0  0  0  0
   -4.7184   -0.2659   -0.2658 H   0  0  0  0  0  0  0  0  0  0  0  0
   -4.6339    1.3166    1.5110 H   0  0  0  0  0  0  0  0  0  0  0  0
   -1.9071    2.3463    0.5988 H   0  0  0  0  0  0  0  0  0  0  0  0
   -2.8638    2.8701    1.9825 H   0  0  0  0  0  0  0  0  0  0  0  0
   -2.1608    1.2482    1.9727 H   0  0  0  0  0  0  0  0  0  0  0  0
   -5.4234    2.1360   -0.7163 H   0  0  0  0  0  0  0  0  0  0  0  0
   -4.7800    3.4230    0.3122 H   0  0  0  0  0  0  0  0  0  0  0  0
   -3.8109    2.8080   -1.0298 H   0  0  0  0  0  0  0  0  0  0  0  0
   -1.8693   -5.9711   -0.4937 H   0  0  0  0  0  0  0  0  0  0  0  0
   -2.6684   -4.4135   -0.7453 H   0  0  0  0  0  0  0  0  0  0  0  0
   -1.4022   -4.9522   -1.8733 H   0  0  0  0  0  0  0  0  0  0  0  0
  1  2  1  0
  2  3  2  0
  3  4  1  0
  4  5  2  3
  5  6  1  0
  6  7  2  0
  7  8  1  0
  8  9  2  0
  9 10  1  0
  9 11  1  0
 11 12  2  0
  4 13  1  0
 13 14  1  0
 14 15  2  3
 15 16  1  0
 16 17  1  0
 17 18  1  0
 18 19  1  0
 18 20  1  0
 14 21  1  0
 21 22  2  0
 22 23  1  0
 23 24  1  0
 23  1  1  0
 22  3  1  0
 12  6  1  0
  1 25  1  0
  2 26  1  0
  7 27  1  0
  8 28  1  0
 10 29  1  0
 10 30  1  0
 10 31  1  0
 11 32  1  0
 12 33  1  0
 13 34  1  0
 16 35  1  0
 16 36  1  0
 17 37  1  0
 17 38  1  0
 18 39  1  0
 19 40  1  0
 19 41  1  0
 19 42  1  0
 20 43  1  0
 20 44  1  0
 20 45  1  0
 24 46  1  0
 24 47  1  0
 24 48  1  0
M  END
>  <ScrubInfo>  (9) 
{"isomerGroup": 0, "isomerId": 8, "confId": 0, "nr_conformers:": 1, "nr_isomers:": 9}

$$$$
