REMARK SMILES Cc1ccc(Nc2nc(NCCC(C)C)nc3c2cnn3C)cc1
REMARK SMILES IDX 10 1 9 3 7 4 8 5 18 6 17 7 19 8 16 9 21 10 20 11 22 12 6 13
REMARK SMILES IDX 5 15 2 16 3 17 24 18 4 19 23 20 1 21 11 22 12 23 13 24 14 25
REMARK SMILES IDX 15 26
REMARK H PARENT 10 2 6 14
ROOT
ATOM      1  N   UNL     1       1.512   0.741   0.351  1.00  0.00    -0.354 N 
ATOM      2  H   UNL     1       0.874   1.516   0.500  1.00  0.00     0.163 HD
ENDROOT
BRANCH   1   3
ATOM      3  C   UNL     1       0.723  -0.397   0.471  1.00  0.00     0.226 A 
ATOM      4  C   UNL     1      -1.499  -1.177   0.472  1.00  0.00     0.147 A 
ATOM      5  N   UNL     1      -0.599  -0.163   0.382  1.00  0.00    -0.195 NA
ATOM      6  C   UNL     1      -0.979  -2.463   0.672  1.00  0.00     0.082 A 
ATOM      7  C   UNL     1       0.394  -2.584   0.753  1.00  0.00     0.165 A 
ATOM      8  C   UNL     1      -1.455  -3.781   0.830  1.00  0.00     0.149 A 
ATOM      9  N   UNL     1       1.290  -1.593   0.664  1.00  0.00    -0.193 NA
ATOM     10  N   UNL     1       0.646  -3.916   0.940  1.00  0.00    -0.250 N 
ATOM     11  N   UNL     1      -0.473  -4.675   0.999  1.00  0.00    -0.179 NA
ATOM     12  C   UNL     1       1.937  -4.542   1.072  1.00  0.00     0.176 C 
BRANCH   4  13
ATOM     13  N   UNL     1      -2.882  -0.953   0.399  1.00  0.00    -0.339 N 
ATOM     14  H   UNL     1      -3.438  -1.785   0.537  1.00  0.00     0.168 HD
BRANCH  13  15
ATOM     15  C   UNL     1      -3.640   0.188   0.082  1.00  0.00     0.040 A 
ATOM     16  C   UNL     1      -5.281   2.439  -0.465  1.00  0.00    -0.051 A 
ATOM     17  C   UNL     1      -5.838   1.261   0.035  1.00  0.00     0.005 A 
ATOM     18  C   UNL     1      -3.900   2.495  -0.664  1.00  0.00     0.005 A 
ATOM     19  C   UNL     1      -5.027   0.152   0.302  1.00  0.00     0.026 A 
ATOM     20  C   UNL     1      -3.093   1.382  -0.394  1.00  0.00     0.026 A 
ATOM     21  C   UNL     1      -6.139   3.642  -0.722  1.00  0.00     0.044 C 
ENDBRANCH  13  15
ENDBRANCH   4  13
ENDBRANCH   1   3
BRANCH   1  22
ATOM     22  C   UNL     1       2.717   0.775   1.161  1.00  0.00     0.116 C 
BRANCH  22  23
ATOM     23  C   UNL     1       3.932   0.216   0.411  1.00  0.00     0.024 C 
BRANCH  23  24
ATOM     24  C   UNL     1       4.255   0.912  -0.926  1.00  0.00    -0.016 C 
ATOM     25  C   UNL     1       4.565   2.399  -0.753  1.00  0.00     0.007 C 
ATOM     26  C   UNL     1       5.439   0.212  -1.599  1.00  0.00     0.007 C 
ENDBRANCH  23  24
ENDBRANCH  22  23
ENDBRANCH   1  22
TORSDOF 6
