REMARK SMILES COc1ccc(Nc2nc(NCCCO)nc3nc[nH]c23)cc1
REMARK SMILES IDX 11 1 10 3 8 4 9 5 21 6 20 7 17 8 16 9 19 10 18 11 7 13 6 15
REMARK SMILES IDX 3 16 4 17 23 18 5 19 22 20 2 21 1 22 12 23 13 24 14 25 15 26
REMARK H PARENT 11 2 20 12 7 14 15 27
ROOT
ATOM      1  N   UNL     1      -3.839  -1.677   0.113  1.00  0.00    -0.354 N 
ATOM      2  H   UNL     1      -4.153  -2.520   0.585  1.00  0.00     0.163 HD
ENDROOT
BRANCH   1   3
ATOM      3  C   UNL     1      -2.470  -1.864  -0.061  1.00  0.00     0.226 A 
ATOM      4  C   UNL     1      -0.360  -0.974  -0.534  1.00  0.00     0.162 A 
ATOM      5  N   UNL     1      -1.688  -0.809  -0.371  1.00  0.00    -0.193 NA
ATOM      6  C   UNL     1       0.118  -2.260  -0.406  1.00  0.00     0.128 A 
ATOM      7  N   UNL     1       1.343  -2.851  -0.540  1.00  0.00    -0.340 N 
ATOM      8  C   UNL     1      -0.740  -3.291  -0.090  1.00  0.00     0.184 A 
ATOM      9  N   UNL     1      -2.056  -3.122   0.103  1.00  0.00    -0.191 NA
ATOM     10  C   UNL     1       1.187  -4.184  -0.279  1.00  0.00     0.199 A 
ATOM     11  N   UNL     1      -0.064  -4.480   0.001  1.00  0.00    -0.217 NA
ATOM     12  H   UNL     1       2.204  -2.378  -0.783  1.00  0.00     0.168 HD
BRANCH   4  13
ATOM     13  N   UNL     1       0.417   0.142  -0.869  1.00  0.00    -0.338 N 
ATOM     14  H   UNL     1      -0.215   0.943  -0.865  1.00  0.00     0.168 HD
BRANCH  13  15
ATOM     15  C   UNL     1       1.680   0.496  -0.354  1.00  0.00     0.040 A 
ATOM     16  C   UNL     1       4.195   1.335   0.615  1.00  0.00     0.119 A 
ATOM     17  C   UNL     1       3.745   1.763  -0.632  1.00  0.00     0.048 A 
ATOM     18  C   UNL     1       3.377   0.506   1.383  1.00  0.00     0.048 A 
ATOM     19  C   UNL     1       2.492   1.353  -1.105  1.00  0.00     0.030 A 
ATOM     20  C   UNL     1       2.126   0.098   0.910  1.00  0.00     0.030 A 
BRANCH  16  21
ATOM     21  O   UNL     1       5.391   1.655   1.194  1.00  0.00    -0.497 OA
ATOM     22  C   UNL     1       6.245   2.529   0.467  1.00  0.00     0.278 C 
ENDBRANCH  16  21
ENDBRANCH  13  15
ENDBRANCH   4  13
ENDBRANCH   1   3
BRANCH   1  23
ATOM     23  C   UNL     1      -4.228  -0.436   0.771  1.00  0.00     0.118 C 
BRANCH  23  24
ATOM     24  C   UNL     1      -4.530   0.653  -0.260  1.00  0.00     0.049 C 
BRANCH  24  25
ATOM     25  C   UNL     1      -5.208   1.861   0.372  1.00  0.00     0.158 C 
BRANCH  25  26
ATOM     26  O   UNL     1      -4.373   2.426   1.373  1.00  0.00    -0.396 OA
ATOM     27  H   UNL     1      -4.818   3.230   1.695  1.00  0.00     0.210 HD
ENDBRANCH  25  26
ENDBRANCH  24  25
ENDBRANCH  23  24
ENDBRANCH   1  23
TORSDOF 8
