_i0
     RDKit          3D

 41 43  0  0  0  0  0  0  0  0999 V2000
    6.2446    2.5294    0.4668 C   0  0  0  0  0  0  0  0  0  0  0  0
    5.3907    1.6549    1.1940 O   0  0  0  0  0  0  0  0  0  0  0  0
    4.1948    1.3352    0.6149 C   0  0  0  0  0  0  0  0  0  0  0  0
    3.7449    1.7631   -0.6323 C   0  0  0  0  0  0  0  0  0  0  0  0
    2.4920    1.3530   -1.1050 C   0  0  0  0  0  0  0  0  0  0  0  0
    1.6799    0.4957   -0.3537 C   0  0  0  0  0  0  0  0  0  0  0  0
    0.4170    0.1420   -0.8694 N   0  0  0  0  0  0  0  0  0  0  0  0
   -0.3604   -0.9743   -0.5338 C   0  0  0  0  0  0  0  0  0  0  0  0
   -1.6880   -0.8095   -0.3709 N   0  0  0  0  0  0  0  0  0  0  0  0
   -2.4699   -1.8636   -0.0611 C   0  0  0  0  0  0  0  0  0  0  0  0
   -3.8392   -1.6766    0.1131 N   0  0  0  0  0  0  0  0  0  0  0  0
   -4.2282   -0.4359    0.7706 C   0  0  0  0  0  0  0  0  0  0  0  0
   -4.5301    0.6532   -0.2598 C   0  0  0  0  0  0  0  0  0  0  0  0
   -5.2077    1.8606    0.3721 C   0  0  0  0  0  0  0  0  0  0  0  0
   -4.3734    2.4263    1.3726 O   0  0  0  0  0  0  0  0  0  0  0  0
   -2.0557   -3.1217    0.1029 N   0  0  0  0  0  0  0  0  0  0  0  0
   -0.7395   -3.2906   -0.0898 C   0  0  0  0  0  0  0  0  0  0  0  0
   -0.0641   -4.4804    0.0005 N   0  0  0  0  0  0  0  0  0  0  0  0
    1.1865   -4.1836   -0.2787 C   0  0  0  0  0  0  0  0  0  0  0  0
    1.3432   -2.8507   -0.5403 N   0  0  0  0  0  0  0  0  0  0  0  0
    0.1183   -2.2600   -0.4063 C   0  0  0  0  0  0  0  0  0  0  0  0
    2.1257    0.0975    0.9099 C   0  0  0  0  0  0  0  0  0  0  0  0
    3.3765    0.5056    1.3833 C   0  0  0  0  0  0  0  0  0  0  0  0
    6.5543    2.0791   -0.4820 H   0  0  0  0  0  0  0  0  0  0  0  0
    5.7693    3.5028    0.3067 H   0  0  0  0  0  0  0  0  0  0  0  0
    7.1448    2.6931    1.0670 H   0  0  0  0  0  0  0  0  0  0  0  0
    4.3380    2.4167   -1.2630 H   0  0  0  0  0  0  0  0  0  0  0  0
    2.1556    1.6980   -2.0807 H   0  0  0  0  0  0  0  0  0  0  0  0
   -0.2149    0.9425   -0.8653 H   0  0  0  0  0  0  0  0  0  0  0  0
   -4.1530   -2.5202    0.5850 H   0  0  0  0  0  0  0  0  0  0  0  0
   -5.1441   -0.6430    1.3378 H   0  0  0  0  0  0  0  0  0  0  0  0
   -3.4821   -0.1061    1.5048 H   0  0  0  0  0  0  0  0  0  0  0  0
   -5.1762    0.2544   -1.0511 H   0  0  0  0  0  0  0  0  0  0  0  0
   -3.5974    0.9745   -0.7370 H   0  0  0  0  0  0  0  0  0  0  0  0
   -6.1610    1.5787    0.8305 H   0  0  0  0  0  0  0  0  0  0  0  0
   -5.3997    2.6224   -0.3904 H   0  0  0  0  0  0  0  0  0  0  0  0
   -4.8177    3.2297    1.6950 H   0  0  0  0  0  0  0  0  0  0  0  0
    2.0122   -4.8826   -0.3083 H   0  0  0  0  0  0  0  0  0  0  0  0
    2.2035   -2.3781   -0.7830 H   0  0  0  0  0  0  0  0  0  0  0  0
    1.5017   -0.5163    1.5549 H   0  0  0  0  0  0  0  0  0  0  0  0
    3.7091    0.1848    2.3679 H   0  0  0  0  0  0  0  0  0  0  0  0
  1  2  1  0
  2  3  1  0
  3  4  2  0
  4  5  1  0
  5  6  2  0
  6  7  1  0
  7  8  1  0
  8  9  2  0
  9 10  1  0
 10 11  1  0
 11 12  1  0
 12 13  1  0
 13 14  1  0
 14 15  1  0
 10 16  2  0
 16 17  1  0
 17 18  1  0
 18 19  2  0
 19 20  1  0
 20 21  1  0
  6 22  1  0
 22 23  2  0
 23  3  1  0
 21  8  1  0
 21 17  2  0
  1 24  1  0
  1 25  1  0
  1 26  1  0
  4 27  1  0
  5 28  1  0
  7 29  1  0
 11 30  1  0
 12 31  1  0
 12 32  1  0
 13 33  1  0
 13 34  1  0
 14 35  1  0
 14 36  1  0
 15 37  1  0
 19 38  1  0
 20 39  1  0
 22 40  1  0
 23 41  1  0
M  END
>  <ScrubInfo>  (1) 
{"isomerGroup": 0, "isomerId": 0, "confId": 0, "nr_conformers:": 1, "nr_isomers:": 14}

$$$$
_i1
     RDKit          3D

 41 43  0  0  0  0  0  0  0  0999 V2000
   -1.4165    0.1555    1.1484 N   0  0  0  0  0  0  0  0  0  0  0  0
   -2.3882   -0.6213    0.5670 C   0  0  0  0  0  0  0  0  0  0  0  0
   -3.6205   -0.4069    1.1408 N   0  0  0  0  0  0  0  0  0  0  0  0
   -4.7861   -1.1963    0.7448 C   0  0  0  0  0  0  0  0  0  0  0  0
   -5.3123   -0.8260   -0.6411 C   0  0  0  0  0  0  0  0  0  0  0  0
   -5.6446    0.6499   -0.8107 C   0  0  0  0  0  0  0  0  0  0  0  0
   -6.5880    1.0766    0.1644 O   0  0  0  0  0  0  0  0  0  0  0  0
   -2.1912   -1.4591   -0.4139 N   0  0  0  0  0  0  0  0  0  0  0  0
   -0.8538   -1.5226   -0.8494 C   0  0  0  0  0  0  0  0  0  0  0  0
   -0.3872   -2.3320   -1.8448 N   0  0  0  0  0  0  0  0  0  0  0  0
    0.8975   -2.0637   -1.9239 C   0  0  0  0  0  0  0  0  0  0  0  0
    1.2773   -1.1132   -1.0146 N   0  0  0  0  0  0  0  0  0  0  0  0
    0.1617   -0.7564   -0.3138 C   0  0  0  0  0  0  0  0  0  0  0  0
   -0.1044    0.1710    0.7477 C   0  0  0  0  0  0  0  0  0  0  0  0
    0.7290    0.9869    1.3292 N   0  0  0  0  0  0  0  0  0  0  0  0
    2.0734    1.0502    0.9609 C   0  0  0  0  0  0  0  0  0  0  0  0
    3.0226    0.2715    1.6267 C   0  0  0  0  0  0  0  0  0  0  0  0
    4.3726    0.3250    1.2616 C   0  0  0  0  0  0  0  0  0  0  0  0
    4.7846    1.1730    0.2334 C   0  0  0  0  0  0  0  0  0  0  0  0
    6.0633    1.3156   -0.2277 O   0  0  0  0  0  0  0  0  0  0  0  0
    7.0797    0.5922    0.4557 C   0  0  0  0  0  0  0  0  0  0  0  0
    3.8380    1.9694   -0.4165 C   0  0  0  0  0  0  0  0  0  0  0  0
    2.4915    1.9174   -0.0488 C   0  0  0  0  0  0  0  0  0  0  0  0
   -1.6810    0.8816    1.7925 H   0  0  0  0  0  0  0  0  0  0  0  0
   -3.5661   -0.3153    2.1494 H   0  0  0  0  0  0  0  0  0  0  0  0
   -5.5760   -1.0309    1.4868 H   0  0  0  0  0  0  0  0  0  0  0  0
   -4.5471   -2.2657    0.7847 H   0  0  0  0  0  0  0  0  0  0  0  0
   -6.2230   -1.4132   -0.8136 H   0  0  0  0  0  0  0  0  0  0  0  0
   -4.5979   -1.1182   -1.4178 H   0  0  0  0  0  0  0  0  0  0  0  0
   -6.0903    0.8143   -1.7969 H   0  0  0  0  0  0  0  0  0  0  0  0
   -4.7521    1.2811   -0.7443 H   0  0  0  0  0  0  0  0  0  0  0  0
   -6.0782    1.3269    0.9538 H   0  0  0  0  0  0  0  0  0  0  0  0
    1.5974   -2.5186   -2.6122 H   0  0  0  0  0  0  0  0  0  0  0  0
    2.2129   -0.7493   -0.8993 H   0  0  0  0  0  0  0  0  0  0  0  0
    2.7072   -0.3827    2.4359 H   0  0  0  0  0  0  0  0  0  0  0  0
    5.0724   -0.3026    1.8034 H   0  0  0  0  0  0  0  0  0  0  0  0
    8.0380    0.8415   -0.0100 H   0  0  0  0  0  0  0  0  0  0  0  0
    7.1344    0.8859    1.5092 H   0  0  0  0  0  0  0  0  0  0  0  0
    6.9302   -0.4877    0.3530 H   0  0  0  0  0  0  0  0  0  0  0  0
    4.1535    2.6442   -1.2090 H   0  0  0  0  0  0  0  0  0  0  0  0
    1.7673    2.5520   -0.5526 H   0  0  0  0  0  0  0  0  0  0  0  0
  1  2  1  0
  2  3  1  0
  3  4  1  0
  4  5  1  0
  5  6  1  0
  6  7  1  0
  2  8  2  0
  8  9  1  0
  9 10  1  0
 10 11  2  0
 11 12  1  0
 12 13  1  0
 13 14  1  0
 14 15  2  3
 15 16  1  0
 16 17  2  0
 17 18  1  0
 18 19  2  0
 19 20  1  0
 20 21  1  0
 19 22  1  0
 22 23  2  0
 14  1  1  0
 23 16  1  0
 13  9  2  0
  1 24  1  0
  3 25  1  0
  4 26  1  0
  4 27  1  0
  5 28  1  0
  5 29  1  0
  6 30  1  0
  6 31  1  0
  7 32  1  0
 11 33  1  0
 12 34  1  0
 17 35  1  0
 18 36  1  0
 21 37  1  0
 21 38  1  0
 21 39  1  0
 22 40  1  0
 23 41  1  0
M  END
>  <ScrubInfo>  (2) 
{"isomerGroup": 0, "isomerId": 1, "confId": 0, "nr_conformers:": 1, "nr_isomers:": 14}

$$$$
_i2
     RDKit          3D

 41 43  0  0  0  0  0  0  0  0999 V2000
   -1.3318   -1.2923    0.0932 N   0  0  0  0  0  0  0  0  0  0  0  0
   -0.3034   -2.0969   -0.3652 C   0  0  0  0  0  0  0  0  0  0  0  0
    0.8552   -1.5945   -0.9310 N   0  0  0  0  0  0  0  0  0  0  0  0
    1.5133   -0.3756   -0.6908 C   0  0  0  0  0  0  0  0  0  0  0  0
    2.4023    0.1074   -1.6623 C   0  0  0  0  0  0  0  0  0  0  0  0
    3.0529    1.3398   -1.5115 C   0  0  0  0  0  0  0  0  0  0  0  0
    2.8182    2.1196   -0.3824 C   0  0  0  0  0  0  0  0  0  0  0  0
    3.3790    3.3357   -0.1097 O   0  0  0  0  0  0  0  0  0  0  0  0
    4.2873    3.8554   -1.0724 C   0  0  0  0  0  0  0  0  0  0  0  0
    1.9313    1.6524    0.5865 C   0  0  0  0  0  0  0  0  0  0  0  0
    1.2827    0.4216    0.4329 C   0  0  0  0  0  0  0  0  0  0  0  0
   -0.5169   -3.4204   -0.2981 C   0  0  0  0  0  0  0  0  0  0  0  0
    0.1231   -4.5832   -0.5849 N   0  0  0  0  0  0  0  0  0  0  0  0
   -0.6640   -5.5856   -0.1089 C   0  0  0  0  0  0  0  0  0  0  0  0
   -1.8042   -5.2169    0.3988 N   0  0  0  0  0  0  0  0  0  0  0  0
   -1.8130   -3.8293    0.3246 C   0  0  0  0  0  0  0  0  0  0  0  0
   -2.7664   -3.0869    0.7507 N   0  0  0  0  0  0  0  0  0  0  0  0
   -2.5361   -1.7387    0.5970 C   0  0  0  0  0  0  0  0  0  0  0  0
   -3.5282   -1.0099    0.9696 N   0  0  0  0  0  0  0  0  0  0  0  0
   -3.4488    0.4421    0.8581 C   0  0  0  0  0  0  0  0  0  0  0  0
   -2.7688    1.0245    2.0963 C   0  0  0  0  0  0  0  0  0  0  0  0
   -2.4826    2.5082    1.9318 C   0  0  0  0  0  0  0  0  0  0  0  0
   -1.5211    2.6856    0.8985 O   0  0  0  0  0  0  0  0  0  0  0  0
   -1.2130   -0.3042   -0.0788 H   0  0  0  0  0  0  0  0  0  0  0  0
    1.4065   -2.2644   -1.4551 H   0  0  0  0  0  0  0  0  0  0  0  0
    2.5879   -0.4686   -2.5660 H   0  0  0  0  0  0  0  0  0  0  0  0
    3.7268    1.6603   -2.2986 H   0  0  0  0  0  0  0  0  0  0  0  0
    5.1588    3.2021   -1.1859 H   0  0  0  0  0  0  0  0  0  0  0  0
    4.6428    4.8240   -0.7079 H   0  0  0  0  0  0  0  0  0  0  0  0
    3.7904    4.0233   -2.0336 H   0  0  0  0  0  0  0  0  0  0  0  0
    1.7358    2.2507    1.4733 H   0  0  0  0  0  0  0  0  0  0  0  0
    0.6195    0.0956    1.2292 H   0  0  0  0  0  0  0  0  0  0  0  0
    1.1245   -4.6340   -0.6787 H   0  0  0  0  0  0  0  0  0  0  0  0
   -0.2828   -6.6152   -0.1851 H   0  0  0  0  0  0  0  0  0  0  0  0
   -4.4712    0.8335    0.7939 H   0  0  0  0  0  0  0  0  0  0  0  0
   -2.9615    0.7532   -0.0726 H   0  0  0  0  0  0  0  0  0  0  0  0
   -1.8254    0.4984    2.2847 H   0  0  0  0  0  0  0  0  0  0  0  0
   -3.4074    0.8640    2.9728 H   0  0  0  0  0  0  0  0  0  0  0  0
   -2.0696    2.9172    2.8591 H   0  0  0  0  0  0  0  0  0  0  0  0
   -3.3899    3.0627    1.6725 H   0  0  0  0  0  0  0  0  0  0  0  0
   -1.3323    3.6391    0.8444 H   0  0  0  0  0  0  0  0  0  0  0  0
  1  2  1  0
  2  3  1  0
  3  4  1  0
  4  5  2  0
  5  6  1  0
  6  7  2  0
  7  8  1  0
  8  9  1  0
  7 10  1  0
 10 11  2  0
  2 12  2  0
 12 13  1  0
 13 14  1  0
 14 15  2  0
 15 16  1  0
 16 17  2  0
 17 18  1  0
 18 19  2  3
 19 20  1  0
 20 21  1  0
 21 22  1  0
 22 23  1  0
 18  1  1  0
 11  4  1  0
 16 12  1  0
  1 24  1  0
  3 25  1  0
  5 26  1  0
  6 27  1  0
  9 28  1  0
  9 29  1  0
  9 30  1  0
 10 31  1  0
 11 32  1  0
 13 33  1  0
 14 34  1  0
 20 35  1  0
 20 36  1  0
 21 37  1  0
 21 38  1  0
 22 39  1  0
 22 40  1  0
 23 41  1  0
M  END
>  <ScrubInfo>  (3) 
{"isomerGroup": 0, "isomerId": 2, "confId": 0, "nr_conformers:": 1, "nr_isomers:": 14}

$$$$
_i3
     RDKit          3D

 41 43  0  0  0  0  0  0  0  0999 V2000
   -2.2410    0.7928   -0.1310 N   0  0  0  0  0  0  0  0  0  0  0  0
   -2.1634   -0.4298    0.5036 C   0  0  0  0  0  0  0  0  0  0  0  0
   -3.0986   -0.9753    1.2019 N   0  0  0  0  0  0  0  0  0  0  0  0
   -4.3730   -0.2936    1.3985 C   0  0  0  0  0  0  0  0  0  0  0  0
   -5.3391   -0.6810    0.2795 C   0  0  0  0  0  0  0  0  0  0  0  0
   -6.6590    0.0648    0.3975 C   0  0  0  0  0  0  0  0  0  0  0  0
   -6.4631    1.4483    0.1293 O   0  0  0  0  0  0  0  0  0  0  0  0
   -1.0334   -1.2371    0.4538 N   0  0  0  0  0  0  0  0  0  0  0  0
    0.0128   -0.8498   -0.2248 C   0  0  0  0  0  0  0  0  0  0  0  0
    1.1102   -1.6812   -0.2489 N   0  0  0  0  0  0  0  0  0  0  0  0
    2.4347   -1.2470   -0.0192 C   0  0  0  0  0  0  0  0  0  0  0  0
    3.4869   -2.0172   -0.5234 C   0  0  0  0  0  0  0  0  0  0  0  0
    4.8147   -1.6487   -0.2902 C   0  0  0  0  0  0  0  0  0  0  0  0
    5.1167   -0.5199    0.4729 C   0  0  0  0  0  0  0  0  0  0  0  0
    6.4520   -0.2712    0.6232 O   0  0  0  0  0  0  0  0  0  0  0  0
    6.8133    0.8386    1.4362 C   0  0  0  0  0  0  0  0  0  0  0  0
    4.0747    0.2347    1.0082 C   0  0  0  0  0  0  0  0  0  0  0  0
    2.7438   -0.1336    0.7715 C   0  0  0  0  0  0  0  0  0  0  0  0
   -0.0801    0.3950   -0.9208 C   0  0  0  0  0  0  0  0  0  0  0  0
    0.7675    1.0633   -1.7538 N   0  0  0  0  0  0  0  0  0  0  0  0
    0.1201    2.2155   -2.1293 C   0  0  0  0  0  0  0  0  0  0  0  0
   -1.0824    2.3044   -1.5926 N   0  0  0  0  0  0  0  0  0  0  0  0
   -1.1929    1.1737   -0.8547 C   0  0  0  0  0  0  0  0  0  0  0  0
   -3.0827    1.3421   -0.0909 H   0  0  0  0  0  0  0  0  0  0  0  0
   -4.7849   -0.6225    2.3601 H   0  0  0  0  0  0  0  0  0  0  0  0
   -4.2579    0.7920    1.4872 H   0  0  0  0  0  0  0  0  0  0  0  0
   -4.8825   -0.4631   -0.6934 H   0  0  0  0  0  0  0  0  0  0  0  0
   -5.5232   -1.7612    0.3176 H   0  0  0  0  0  0  0  0  0  0  0  0
   -7.3901   -0.3241   -0.3186 H   0  0  0  0  0  0  0  0  0  0  0  0
   -7.0820   -0.0354    1.4019 H   0  0  0  0  0  0  0  0  0  0  0  0
   -6.3266    1.5389   -0.8301 H   0  0  0  0  0  0  0  0  0  0  0  0
    0.9162   -2.5049    0.3184 H   0  0  0  0  0  0  0  0  0  0  0  0
    3.2803   -2.9060   -1.1156 H   0  0  0  0  0  0  0  0  0  0  0  0
    5.6208   -2.2518   -0.7016 H   0  0  0  0  0  0  0  0  0  0  0  0
    6.4565    0.7087    2.4633 H   0  0  0  0  0  0  0  0  0  0  0  0
    6.4487    1.7772    1.0060 H   0  0  0  0  0  0  0  0  0  0  0  0
    7.9060    0.8887    1.4670 H   0  0  0  0  0  0  0  0  0  0  0  0
    4.2585    1.1087    1.6247 H   0  0  0  0  0  0  0  0  0  0  0  0
    1.9547    0.4569    1.2331 H   0  0  0  0  0  0  0  0  0  0  0  0
    1.6932    0.7687   -2.0364 H   0  0  0  0  0  0  0  0  0  0  0  0
    0.5736    2.9411   -2.7920 H   0  0  0  0  0  0  0  0  0  0  0  0
  1  2  1  0
  2  3  2  3
  3  4  1  0
  4  5  1  0
  5  6  1  0
  6  7  1  0
  2  8  1  0
  8  9  2  0
  9 10  1  0
 10 11  1  0
 11 12  2  0
 12 13  1  0
 13 14  2  0
 14 15  1  0
 15 16  1  0
 14 17  1  0
 17 18  2  0
  9 19  1  0
 19 20  1  0
 20 21  1  0
 21 22  2  0
 22 23  1  0
 23  1  1  0
 18 11  1  0
 23 19  2  0
  1 24  1  0
  4 25  1  0
  4 26  1  0
  5 27  1  0
  5 28  1  0
  6 29  1  0
  6 30  1  0
  7 31  1  0
 10 32  1  0
 12 33  1  0
 13 34  1  0
 16 35  1  0
 16 36  1  0
 16 37  1  0
 17 38  1  0
 18 39  1  0
 20 40  1  0
 21 41  1  0
M  END
>  <ScrubInfo>  (4) 
{"isomerGroup": 0, "isomerId": 3, "confId": 0, "nr_conformers:": 1, "nr_isomers:": 14}

$$$$
_i4
     RDKit          3D

 41 43  0  0  0  0  0  0  0  0999 V2000
   -0.5434   -3.5849   -1.2602 N   0  0  0  0  0  0  0  0  0  0  0  0
    0.8202   -3.5883   -1.1908 C   0  0  0  0  0  0  0  0  0  0  0  0
    1.2943   -2.3937   -0.9130 N   0  0  0  0  0  0  0  0  0  0  0  0
    0.1860   -1.5728   -0.7952 C   0  0  0  0  0  0  0  0  0  0  0  0
   -0.0030   -0.2038   -0.5313 C   0  0  0  0  0  0  0  0  0  0  0  0
    0.9796    0.7668   -0.3017 N   0  0  0  0  0  0  0  0  0  0  0  0
    2.2728    0.7338    0.2353 C   0  0  0  0  0  0  0  0  0  0  0  0
    2.8256   -0.3687    0.8853 C   0  0  0  0  0  0  0  0  0  0  0  0
    4.1419   -0.3402    1.3640 C   0  0  0  0  0  0  0  0  0  0  0  0
    4.9417    0.7886    1.1929 C   0  0  0  0  0  0  0  0  0  0  0  0
    6.2039    0.6839    1.7070 O   0  0  0  0  0  0  0  0  0  0  0  0
    7.0615    1.8045    1.5339 C   0  0  0  0  0  0  0  0  0  0  0  0
    4.4108    1.8935    0.5346 C   0  0  0  0  0  0  0  0  0  0  0  0
    3.0926    1.8598    0.0591 C   0  0  0  0  0  0  0  0  0  0  0  0
   -1.2861    0.2663   -0.5633 N   0  0  0  0  0  0  0  0  0  0  0  0
   -2.3211   -0.5651   -0.7906 C   0  0  0  0  0  0  0  0  0  0  0  0
   -3.5692    0.0488   -0.7878 N   0  0  0  0  0  0  0  0  0  0  0  0
   -4.6313   -0.7491   -0.2004 C   0  0  0  0  0  0  0  0  0  0  0  0
   -5.9302    0.0611   -0.1462 C   0  0  0  0  0  0  0  0  0  0  0  0
   -5.8793    1.2035    0.8635 C   0  0  0  0  0  0  0  0  0  0  0  0
   -4.9187    2.1827    0.4869 O   0  0  0  0  0  0  0  0  0  0  0  0
   -2.2306   -1.8846   -1.0176 N   0  0  0  0  0  0  0  0  0  0  0  0
   -0.9637   -2.3099   -1.0189 C   0  0  0  0  0  0  0  0  0  0  0  0
   -1.1454   -4.3666   -1.4691 H   0  0  0  0  0  0  0  0  0  0  0  0
    1.4095   -4.4814   -1.3532 H   0  0  0  0  0  0  0  0  0  0  0  0
    0.5390    1.6789   -0.2739 H   0  0  0  0  0  0  0  0  0  0  0  0
    2.2426   -1.2669    1.0580 H   0  0  0  0  0  0  0  0  0  0  0  0
    4.5421   -1.2135    1.8728 H   0  0  0  0  0  0  0  0  0  0  0  0
    7.2363    2.0082    0.4722 H   0  0  0  0  0  0  0  0  0  0  0  0
    8.0263    1.5605    1.9889 H   0  0  0  0  0  0  0  0  0  0  0  0
    6.6657    2.6874    2.0466 H   0  0  0  0  0  0  0  0  0  0  0  0
    4.9897    2.7947    0.3662 H   0  0  0  0  0  0  0  0  0  0  0  0
    2.7085    2.7305   -0.4678 H   0  0  0  0  0  0  0  0  0  0  0  0
   -3.4310    0.9447   -0.3162 H   0  0  0  0  0  0  0  0  0  0  0  0
   -4.3611   -1.0820    0.8098 H   0  0  0  0  0  0  0  0  0  0  0  0
   -4.8147   -1.6398   -0.8140 H   0  0  0  0  0  0  0  0  0  0  0  0
   -6.1491    0.4621   -1.1435 H   0  0  0  0  0  0  0  0  0  0  0  0
   -6.7510   -0.6111    0.1293 H   0  0  0  0  0  0  0  0  0  0  0  0
   -6.8555    1.6941    0.9335 H   0  0  0  0  0  0  0  0  0  0  0  0
   -5.6163    0.8331    1.8593 H   0  0  0  0  0  0  0  0  0  0  0  0
   -5.1899    2.5346   -0.3805 H   0  0  0  0  0  0  0  0  0  0  0  0
  1  2  1  0
  2  3  2  0
  3  4  1  0
  4  5  2  0
  5  6  1  0
  6  7  1  0
  7  8  2  0
  8  9  1  0
  9 10  2  0
 10 11  1  0
 11 12  1  0
 10 13  1  0
 13 14  2  0
  5 15  1  0
 15 16  2  0
 16 17  1  0
 17 18  1  0
 18 19  1  0
 19 20  1  0
 20 21  1  0
 16 22  1  0
 22 23  2  0
 23  1  1  0
 23  4  1  0
 14  7  1  0
  1 24  1  0
  2 25  1  0
  6 26  1  0
  8 27  1  0
  9 28  1  0
 12 29  1  0
 12 30  1  0
 12 31  1  0
 13 32  1  0
 14 33  1  0
 17 34  1  0
 18 35  1  0
 18 36  1  0
 19 37  1  0
 19 38  1  0
 20 39  1  0
 20 40  1  0
 21 41  1  0
M  END
>  <ScrubInfo>  (5) 
{"isomerGroup": 0, "isomerId": 4, "confId": 0, "nr_conformers:": 1, "nr_isomers:": 14}

$$$$
_i5
     RDKit          3D

 41 43  0  0  0  0  0  0  0  0999 V2000
   -2.1441   -0.3699   -1.3615 N   0  0  0  0  0  0  0  0  0  0  0  0
   -1.2887   -0.0020   -0.3537 C   0  0  0  0  0  0  0  0  0  0  0  0
   -1.8648    0.4099    0.8123 N   0  0  0  0  0  0  0  0  0  0  0  0
   -3.2130    0.8945    1.0161 C   0  0  0  0  0  0  0  0  0  0  0  0
   -4.1041   -0.2427    1.5110 C   0  0  0  0  0  0  0  0  0  0  0  0
   -5.5290    0.2252    1.7633 C   0  0  0  0  0  0  0  0  0  0  0  0
   -6.0966    0.6943    0.5492 O   0  0  0  0  0  0  0  0  0  0  0  0
    0.0194   -0.0109   -0.3907 N   0  0  0  0  0  0  0  0  0  0  0  0
    0.6539   -0.4220   -1.5442 C   0  0  0  0  0  0  0  0  0  0  0  0
    1.9366   -0.4642   -1.7132 N   0  0  0  0  0  0  0  0  0  0  0  0
    2.7537   -0.0590   -0.6495 C   0  0  0  0  0  0  0  0  0  0  0  0
    3.1890   -0.9844    0.3017 C   0  0  0  0  0  0  0  0  0  0  0  0
    4.0335   -0.5925    1.3474 C   0  0  0  0  0  0  0  0  0  0  0  0
    4.4596    0.7327    1.4422 C   0  0  0  0  0  0  0  0  0  0  0  0
    5.2806    1.2472    2.4077 O   0  0  0  0  0  0  0  0  0  0  0  0
    5.7383    0.3454    3.4071 C   0  0  0  0  0  0  0  0  0  0  0  0
    4.0368    1.6556    0.4823 C   0  0  0  0  0  0  0  0  0  0  0  0
    3.1939    1.2619   -0.5605 C   0  0  0  0  0  0  0  0  0  0  0  0
   -0.2139   -0.8219   -2.5929 C   0  0  0  0  0  0  0  0  0  0  0  0
    0.0313   -1.2937   -3.8470 N   0  0  0  0  0  0  0  0  0  0  0  0
   -1.1933   -1.5300   -4.4229 C   0  0  0  0  0  0  0  0  0  0  0  0
   -2.1896   -1.2333   -3.6083 N   0  0  0  0  0  0  0  0  0  0  0  0
   -1.5693   -0.7936   -2.4859 C   0  0  0  0  0  0  0  0  0  0  0  0
   -3.1425   -0.3947   -1.2341 H   0  0  0  0  0  0  0  0  0  0  0  0
   -1.1749    0.7431    1.4793 H   0  0  0  0  0  0  0  0  0  0  0  0
   -3.1855    1.6888    1.7714 H   0  0  0  0  0  0  0  0  0  0  0  0
   -3.6065    1.3508    0.1011 H   0  0  0  0  0  0  0  0  0  0  0  0
   -4.1149   -1.0474    0.7660 H   0  0  0  0  0  0  0  0  0  0  0  0
   -3.6906   -0.6653    2.4346 H   0  0  0  0  0  0  0  0  0  0  0  0
   -6.1372   -0.6066    2.1325 H   0  0  0  0  0  0  0  0  0  0  0  0
   -5.5543    1.0342    2.5002 H   0  0  0  0  0  0  0  0  0  0  0  0
   -7.0302    0.9042    0.7294 H   0  0  0  0  0  0  0  0  0  0  0  0
    2.8621   -2.0178    0.2295 H   0  0  0  0  0  0  0  0  0  0  0  0
    4.3371   -1.3468    2.0645 H   0  0  0  0  0  0  0  0  0  0  0  0
    4.9019   -0.0623    3.9844 H   0  0  0  0  0  0  0  0  0  0  0  0
    6.3760    0.9067    4.0969 H   0  0  0  0  0  0  0  0  0  0  0  0
    6.3449   -0.4544    2.9695 H   0  0  0  0  0  0  0  0  0  0  0  0
    4.3669    2.6892    0.5446 H   0  0  0  0  0  0  0  0  0  0  0  0
    2.8755    1.9872   -1.3030 H   0  0  0  0  0  0  0  0  0  0  0  0
    0.9434   -1.4402   -4.2590 H   0  0  0  0  0  0  0  0  0  0  0  0
   -1.2913   -1.9152   -5.4293 H   0  0  0  0  0  0  0  0  0  0  0  0
  1  2  1  0
  2  3  1  0
  3  4  1  0
  4  5  1  0
  5  6  1  0
  6  7  1  0
  2  8  2  0
  8  9  1  0
  9 10  2  3
 10 11  1  0
 11 12  2  0
 12 13  1  0
 13 14  2  0
 14 15  1  0
 15 16  1  0
 14 17  1  0
 17 18  2  0
  9 19  1  0
 19 20  1  0
 20 21  1  0
 21 22  2  0
 22 23  1  0
 23  1  1  0
 18 11  1  0
 23 19  2  0
  1 24  1  0
  3 25  1  0
  4 26  1  0
  4 27  1  0
  5 28  1  0
  5 29  1  0
  6 30  1  0
  6 31  1  0
  7 32  1  0
 12 33  1  0
 13 34  1  0
 16 35  1  0
 16 36  1  0
 16 37  1  0
 17 38  1  0
 18 39  1  0
 20 40  1  0
 21 41  1  0
M  END
>  <ScrubInfo>  (6) 
{"isomerGroup": 0, "isomerId": 5, "confId": 0, "nr_conformers:": 1, "nr_isomers:": 14}

$$$$
_i6
     RDKit          3D

 41 43  0  0  0  0  0  0  0  0999 V2000
   -2.0918   -1.7232   -0.6843 N   0  0  0  0  0  0  0  0  0  0  0  0
   -2.1476   -0.4747   -0.1478 C   0  0  0  0  0  0  0  0  0  0  0  0
   -3.3562   -0.0738    0.3441 N   0  0  0  0  0  0  0  0  0  0  0  0
   -4.5764   -0.1308   -0.4543 C   0  0  0  0  0  0  0  0  0  0  0  0
   -5.8120   -0.0180    0.4408 C   0  0  0  0  0  0  0  0  0  0  0  0
   -5.9943    1.3614    1.0593 C   0  0  0  0  0  0  0  0  0  0  0  0
   -6.1535    2.3420    0.0444 O   0  0  0  0  0  0  0  0  0  0  0  0
   -1.1148    0.3220   -0.0656 N   0  0  0  0  0  0  0  0  0  0  0  0
    0.1245   -0.1226   -0.5559 C   0  0  0  0  0  0  0  0  0  0  0  0
    1.1750    0.7875   -0.4820 N   0  0  0  0  0  0  0  0  0  0  0  0
    2.4538    0.5868    0.0852 C   0  0  0  0  0  0  0  0  0  0  0  0
    2.8436   -0.5720    0.7603 C   0  0  0  0  0  0  0  0  0  0  0  0
    4.1352   -0.6956    1.2867 C   0  0  0  0  0  0  0  0  0  0  0  0
    5.0677    0.3318    1.1439 C   0  0  0  0  0  0  0  0  0  0  0  0
    6.2894    0.0815    1.7043 O   0  0  0  0  0  0  0  0  0  0  0  0
    7.2816    1.0886    1.5542 C   0  0  0  0  0  0  0  0  0  0  0  0
    4.6957    1.4902    0.4668 C   0  0  0  0  0  0  0  0  0  0  0  0
    3.4019    1.6114   -0.0571 C   0  0  0  0  0  0  0  0  0  0  0  0
    0.2606   -1.3434   -1.1289 C   0  0  0  0  0  0  0  0  0  0  0  0
    1.2875   -2.0388   -1.7070 N   0  0  0  0  0  0  0  0  0  0  0  0
    0.7350   -3.1742   -2.0223 C   0  0  0  0  0  0  0  0  0  0  0  0
   -0.6120   -3.3346   -1.7184 N   0  0  0  0  0  0  0  0  0  0  0  0
   -0.9264   -2.1988   -1.1766 C   0  0  0  0  0  0  0  0  0  0  0  0
   -2.8713   -2.3515   -0.5921 H   0  0  0  0  0  0  0  0  0  0  0  0
   -3.2317    0.8640    0.7264 H   0  0  0  0  0  0  0  0  0  0  0  0
   -4.5606    0.6609   -1.2115 H   0  0  0  0  0  0  0  0  0  0  0  0
   -4.6364   -1.0859   -0.9878 H   0  0  0  0  0  0  0  0  0  0  0  0
   -6.6921   -0.2433   -0.1740 H   0  0  0  0  0  0  0  0  0  0  0  0
   -5.7656   -0.7692    1.2381 H   0  0  0  0  0  0  0  0  0  0  0  0
   -6.8803    1.3810    1.7026 H   0  0  0  0  0  0  0  0  0  0  0  0
   -5.1338    1.6412    1.6738 H   0  0  0  0  0  0  0  0  0  0  0  0
   -7.0581    2.2609   -0.3058 H   0  0  0  0  0  0  0  0  0  0  0  0
    0.7971    1.6836   -0.1857 H   0  0  0  0  0  0  0  0  0  0  0  0
    2.1522   -1.3961    0.9026 H   0  0  0  0  0  0  0  0  0  0  0  0
    4.4130   -1.6067    1.8103 H   0  0  0  0  0  0  0  0  0  0  0  0
    7.5135    1.2611    0.4979 H   0  0  0  0  0  0  0  0  0  0  0  0
    8.1948    0.7334    2.0414 H   0  0  0  0  0  0  0  0  0  0  0  0
    6.9796    2.0170    2.0501 H   0  0  0  0  0  0  0  0  0  0  0  0
    5.3826    2.3163    0.3214 H   0  0  0  0  0  0  0  0  0  0  0  0
    3.1372    2.5180   -0.5964 H   0  0  0  0  0  0  0  0  0  0  0  0
    1.2935   -3.9874   -2.5128 H   0  0  0  0  0  0  0  0  0  0  0  0
  1  2  1  0
  2  3  1  0
  3  4  1  0
  4  5  1  0
  5  6  1  0
  6  7  1  0
  2  8  2  0
  8  9  1  0
  9 10  1  0
 10 11  1  0
 11 12  2  0
 12 13  1  0
 13 14  2  0
 14 15  1  0
 15 16  1  0
 14 17  1  0
 17 18  2  0
  9 19  2  0
 19 20  1  0
 20 21  2  0
 21 22  1  0
 22 23  2  0
 23  1  1  0
 18 11  1  0
 23 19  1  0
  1 24  1  0
  3 25  1  0
  4 26  1  0
  4 27  1  0
  5 28  1  0
  5 29  1  0
  6 30  1  0
  6 31  1  0
  7 32  1  0
 10 33  1  0
 12 34  1  0
 13 35  1  0
 16 36  1  0
 16 37  1  0
 16 38  1  0
 17 39  1  0
 18 40  1  0
 21 41  1  0
M  END
>  <ScrubInfo>  (7) 
{"isomerGroup": 0, "isomerId": 6, "confId": 0, "nr_conformers:": 1, "nr_isomers:": 14}

$$$$
_i7
     RDKit          3D

 41 43  0  0  0  0  0  0  0  0999 V2000
   -1.3084    0.6551    0.5308 N   0  0  0  0  0  0  0  0  0  0  0  0
   -2.3264   -0.0515    1.1037 C   0  0  0  0  0  0  0  0  0  0  0  0
   -3.5561    0.1062    0.5338 N   0  0  0  0  0  0  0  0  0  0  0  0
   -3.7794   -0.1162   -0.8929 C   0  0  0  0  0  0  0  0  0  0  0  0
   -5.1481    0.4215   -1.3125 C   0  0  0  0  0  0  0  0  0  0  0  0
   -6.3160   -0.4060   -0.7930 C   0  0  0  0  0  0  0  0  0  0  0  0
   -6.2222   -1.7315   -1.2934 O   0  0  0  0  0  0  0  0  0  0  0  0
   -2.1979   -0.8186    2.1439 N   0  0  0  0  0  0  0  0  0  0  0  0
   -0.9339   -0.8867    2.6459 C   0  0  0  0  0  0  0  0  0  0  0  0
   -0.5503   -1.5584    3.6870 N   0  0  0  0  0  0  0  0  0  0  0  0
    0.8003   -1.2512    3.7584 C   0  0  0  0  0  0  0  0  0  0  0  0
    1.2916   -0.4530    2.8512 N   0  0  0  0  0  0  0  0  0  0  0  0
    0.2053   -0.1689    2.0655 C   0  0  0  0  0  0  0  0  0  0  0  0
    0.0005    0.6146    0.9876 C   0  0  0  0  0  0  0  0  0  0  0  0
    0.9592    1.4072    0.3807 N   0  0  0  0  0  0  0  0  0  0  0  0
    2.2757    1.0791   -0.0031 C   0  0  0  0  0  0  0  0  0  0  0  0
    2.8096   -0.2117    0.0486 C   0  0  0  0  0  0  0  0  0  0  0  0
    4.1400   -0.4671   -0.3164 C   0  0  0  0  0  0  0  0  0  0  0  0
    4.9675    0.5733   -0.7306 C   0  0  0  0  0  0  0  0  0  0  0  0
    6.2754    0.4622   -1.1122 O   0  0  0  0  0  0  0  0  0  0  0  0
    6.8564   -0.8335   -1.0357 C   0  0  0  0  0  0  0  0  0  0  0  0
    4.4524    1.8677   -0.7730 C   0  0  0  0  0  0  0  0  0  0  0  0
    3.1258    2.1184   -0.4072 C   0  0  0  0  0  0  0  0  0  0  0  0
   -1.5308    1.3445   -0.1676 H   0  0  0  0  0  0  0  0  0  0  0  0
   -4.2078   -0.4562    1.0802 H   0  0  0  0  0  0  0  0  0  0  0  0
   -3.6811   -1.1829   -1.1224 H   0  0  0  0  0  0  0  0  0  0  0  0
   -3.0190    0.4121   -1.4789 H   0  0  0  0  0  0  0  0  0  0  0  0
   -5.1842    0.4195   -2.4091 H   0  0  0  0  0  0  0  0  0  0  0  0
   -5.2622    1.4603   -0.9811 H   0  0  0  0  0  0  0  0  0  0  0  0
   -7.2607    0.0258   -1.1387 H   0  0  0  0  0  0  0  0  0  0  0  0
   -6.3314   -0.4403    0.3003 H   0  0  0  0  0  0  0  0  0  0  0  0
   -6.9969   -2.2197   -0.9623 H   0  0  0  0  0  0  0  0  0  0  0  0
    1.4210   -1.6762    4.5633 H   0  0  0  0  0  0  0  0  0  0  0  0
    0.5798    2.1633   -0.1744 H   0  0  0  0  0  0  0  0  0  0  0  0
    2.1985   -1.0534    0.3605 H   0  0  0  0  0  0  0  0  0  0  0  0
    4.4909   -1.4918   -0.2596 H   0  0  0  0  0  0  0  0  0  0  0  0
    7.9007   -0.7505   -1.3520 H   0  0  0  0  0  0  0  0  0  0  0  0
    6.8491   -1.2104   -0.0075 H   0  0  0  0  0  0  0  0  0  0  0  0
    6.3570   -1.5304   -1.7167 H   0  0  0  0  0  0  0  0  0  0  0  0
    5.0903    2.6914   -1.0830 H   0  0  0  0  0  0  0  0  0  0  0  0
    2.7657    3.1437   -0.4297 H   0  0  0  0  0  0  0  0  0  0  0  0
  1  2  1  0
  2  3  1  0
  3  4  1  0
  4  5  1  0
  5  6  1  0
  6  7  1  0
  2  8  2  0
  8  9  1  0
  9 10  2  0
 10 11  1  0
 11 12  2  0
 12 13  1  0
 13 14  2  0
 14 15  1  0
 15 16  1  0
 16 17  2  0
 17 18  1  0
 18 19  2  0
 19 20  1  0
 20 21  1  0
 19 22  1  0
 22 23  2  0
 14  1  1  0
 23 16  1  0
 13  9  1  0
  1 24  1  0
  3 25  1  0
  4 26  1  0
  4 27  1  0
  5 28  1  0
  5 29  1  0
  6 30  1  0
  6 31  1  0
  7 32  1  0
 11 33  1  0
 15 34  1  0
 17 35  1  0
 18 36  1  0
 21 37  1  0
 21 38  1  0
 21 39  1  0
 22 40  1  0
 23 41  1  0
M  END
>  <ScrubInfo>  (8) 
{"isomerGroup": 0, "isomerId": 7, "confId": 0, "nr_conformers:": 1, "nr_isomers:": 14}

$$$$
_i8
     RDKit          3D

 41 43  0  0  0  0  0  0  0  0999 V2000
   -2.2397   -0.6028   -0.3961 N   0  0  0  0  0  0  0  0  0  0  0  0
   -2.3135   -0.1710    0.9180 C   0  0  0  0  0  0  0  0  0  0  0  0
   -3.3791    0.0630    1.6115 N   0  0  0  0  0  0  0  0  0  0  0  0
   -4.7003   -0.1515    1.0231 C   0  0  0  0  0  0  0  0  0  0  0  0
   -5.1753    1.1360    0.3524 C   0  0  0  0  0  0  0  0  0  0  0  0
   -6.5409    0.9728   -0.3008 C   0  0  0  0  0  0  0  0  0  0  0  0
   -7.5312    0.6344    0.6590 O   0  0  0  0  0  0  0  0  0  0  0  0
   -1.1004    0.0376    1.5380 N   0  0  0  0  0  0  0  0  0  0  0  0
    0.1597   -0.1324    1.0157 C   0  0  0  0  0  0  0  0  0  0  0  0
    1.2023    0.1177    1.7565 N   0  0  0  0  0  0  0  0  0  0  0  0
    2.5024   -0.0354    1.2740 C   0  0  0  0  0  0  0  0  0  0  0  0
    3.1663   -1.2556    1.4029 C   0  0  0  0  0  0  0  0  0  0  0  0
    4.4642   -1.4043    0.9087 C   0  0  0  0  0  0  0  0  0  0  0  0
    5.1217   -0.3312    0.3013 C   0  0  0  0  0  0  0  0  0  0  0  0
    6.3827   -0.6128   -0.1443 O   0  0  0  0  0  0  0  0  0  0  0  0
    7.1379    0.4725   -0.6689 C   0  0  0  0  0  0  0  0  0  0  0  0
    4.4697    0.8976    0.1962 C   0  0  0  0  0  0  0  0  0  0  0  0
    3.1678    1.0439    0.6884 C   0  0  0  0  0  0  0  0  0  0  0  0
    0.1489   -0.5834   -0.3480 C   0  0  0  0  0  0  0  0  0  0  0  0
    1.0946   -0.8939   -1.2807 N   0  0  0  0  0  0  0  0  0  0  0  0
    0.4259   -1.2680   -2.4200 C   0  0  0  0  0  0  0  0  0  0  0  0
   -0.8820   -1.2136   -2.2670 N   0  0  0  0  0  0  0  0  0  0  0  0
   -1.0477   -0.7952   -0.9869 C   0  0  0  0  0  0  0  0  0  0  0  0
   -3.0828   -0.7748   -0.9204 H   0  0  0  0  0  0  0  0  0  0  0  0
   -4.7179   -0.9975    0.3272 H   0  0  0  0  0  0  0  0  0  0  0  0
   -5.3845   -0.4210    1.8360 H   0  0  0  0  0  0  0  0  0  0  0  0
   -5.2223    1.9303    1.1077 H   0  0  0  0  0  0  0  0  0  0  0  0
   -4.4512    1.4560   -0.4058 H   0  0  0  0  0  0  0  0  0  0  0  0
   -6.5174    0.1836   -1.0589 H   0  0  0  0  0  0  0  0  0  0  0  0
   -6.8431    1.9030   -0.7924 H   0  0  0  0  0  0  0  0  0  0  0  0
   -7.5440    1.3401    1.3290 H   0  0  0  0  0  0  0  0  0  0  0  0
   -1.1490    0.3501    2.4962 H   0  0  0  0  0  0  0  0  0  0  0  0
    2.6711   -2.0925    1.8882 H   0  0  0  0  0  0  0  0  0  0  0  0
    4.9718   -2.3610    1.0094 H   0  0  0  0  0  0  0  0  0  0  0  0
    7.2718    1.2605    0.0796 H   0  0  0  0  0  0  0  0  0  0  0  0
    6.6775    0.8668   -1.5808 H   0  0  0  0  0  0  0  0  0  0  0  0
    8.1293    0.0926   -0.9340 H   0  0  0  0  0  0  0  0  0  0  0  0
    4.9439    1.7627   -0.2554 H   0  0  0  0  0  0  0  0  0  0  0  0
    2.6670    2.0063    0.6161 H   0  0  0  0  0  0  0  0  0  0  0  0
    2.0988   -0.8625   -1.1667 H   0  0  0  0  0  0  0  0  0  0  0  0
    0.9469   -1.5673   -3.3201 H   0  0  0  0  0  0  0  0  0  0  0  0
  1  2  1  0
  2  3  2  3
  3  4  1  0
  4  5  1  0
  5  6  1  0
  6  7  1  0
  2  8  1  0
  8  9  1  0
  9 10  2  3
 10 11  1  0
 11 12  2  0
 12 13  1  0
 13 14  2  0
 14 15  1  0
 15 16  1  0
 14 17  1  0
 17 18  2  0
  9 19  1  0
 19 20  1  0
 20 21  1  0
 21 22  2  0
 22 23  1  0
 23  1  1  0
 18 11  1  0
 23 19  2  0
  1 24  1  0
  4 25  1  0
  4 26  1  0
  5 27  1  0
  5 28  1  0
  6 29  1  0
  6 30  1  0
  7 31  1  0
  8 32  1  0
 12 33  1  0
 13 34  1  0
 16 35  1  0
 16 36  1  0
 16 37  1  0
 17 38  1  0
 18 39  1  0
 20 40  1  0
 21 41  1  0
M  END
>  <ScrubInfo>  (9) 
{"isomerGroup": 0, "isomerId": 8, "confId": 0, "nr_conformers:": 1, "nr_isomers:": 14}

$$$$
_i9
     RDKit          3D

 41 43  0  0  0  0  0  0  0  0999 V2000
    0.0473   -1.2312    2.8005 N   0  0  0  0  0  0  0  0  0  0  0  0
    1.3971   -1.0683    2.6379 C   0  0  0  0  0  0  0  0  0  0  0  0
    1.6992   -0.6185    1.4379 N   0  0  0  0  0  0  0  0  0  0  0  0
    0.4910   -0.4879    0.7962 C   0  0  0  0  0  0  0  0  0  0  0  0
    0.1647   -0.0292   -0.5496 C   0  0  0  0  0  0  0  0  0  0  0  0
    0.9676    0.4004   -1.4765 N   0  0  0  0  0  0  0  0  0  0  0  0
    2.3472    0.4584   -1.2493 C   0  0  0  0  0  0  0  0  0  0  0  0
    2.9314    1.6170   -0.7327 C   0  0  0  0  0  0  0  0  0  0  0  0
    4.3173    1.6994   -0.5511 C   0  0  0  0  0  0  0  0  0  0  0  0
    5.1335    0.6232   -0.9011 C   0  0  0  0  0  0  0  0  0  0  0  0
    6.4952    0.5725   -0.7788 O   0  0  0  0  0  0  0  0  0  0  0  0
    7.1262    1.7006   -0.1871 C   0  0  0  0  0  0  0  0  0  0  0  0
    4.5517   -0.5276   -1.4384 C   0  0  0  0  0  0  0  0  0  0  0  0
    3.1680   -0.6080   -1.6175 C   0  0  0  0  0  0  0  0  0  0  0  0
   -1.2014   -0.0986   -0.7360 N   0  0  0  0  0  0  0  0  0  0  0  0
   -2.1558   -0.4941    0.1767 C   0  0  0  0  0  0  0  0  0  0  0  0
   -3.4286   -0.4228   -0.3269 N   0  0  0  0  0  0  0  0  0  0  0  0
   -4.5586   -0.9165    0.4479 C   0  0  0  0  0  0  0  0  0  0  0  0
   -5.8750   -0.5432   -0.2243 C   0  0  0  0  0  0  0  0  0  0  0  0
   -6.1327    0.9577   -0.2069 C   0  0  0  0  0  0  0  0  0  0  0  0
   -7.3809    1.2319   -0.8331 O   0  0  0  0  0  0  0  0  0  0  0  0
   -1.8839   -0.8863    1.3976 N   0  0  0  0  0  0  0  0  0  0  0  0
   -0.5470   -0.8643    1.6313 C   0  0  0  0  0  0  0  0  0  0  0  0
   -0.4313   -1.5598    3.6252 H   0  0  0  0  0  0  0  0  0  0  0  0
    2.1049   -1.2922    3.4248 H   0  0  0  0  0  0  0  0  0  0  0  0
    2.3011    2.4591   -0.4630 H   0  0  0  0  0  0  0  0  0  0  0  0
    4.7209    2.6160   -0.1367 H   0  0  0  0  0  0  0  0  0  0  0  0
    6.7705    1.8624    0.8359 H   0  0  0  0  0  0  0  0  0  0  0  0
    6.9881    2.5967   -0.8011 H   0  0  0  0  0  0  0  0  0  0  0  0
    8.1998    1.4948   -0.1369 H   0  0  0  0  0  0  0  0  0  0  0  0
    5.1789   -1.3694   -1.7185 H   0  0  0  0  0  0  0  0  0  0  0  0
    2.7287   -1.5063   -2.0393 H   0  0  0  0  0  0  0  0  0  0  0  0
   -1.5110    0.3135   -1.6003 H   0  0  0  0  0  0  0  0  0  0  0  0
   -3.4953   -0.6554   -1.3118 H   0  0  0  0  0  0  0  0  0  0  0  0
   -4.5369   -0.5066    1.4646 H   0  0  0  0  0  0  0  0  0  0  0  0
   -4.4907   -2.0078    0.5245 H   0  0  0  0  0  0  0  0  0  0  0  0
   -6.7003   -1.0524    0.2889 H   0  0  0  0  0  0  0  0  0  0  0  0
   -5.8978   -0.9063   -1.2596 H   0  0  0  0  0  0  0  0  0  0  0  0
   -6.1619    1.3495    0.8150 H   0  0  0  0  0  0  0  0  0  0  0  0
   -5.3593    1.4990   -0.7600 H   0  0  0  0  0  0  0  0  0  0  0  0
   -8.0820    0.8644   -0.2681 H   0  0  0  0  0  0  0  0  0  0  0  0
  1  2  1  0
  2  3  2  0
  3  4  1  0
  4  5  1  0
  5  6  2  3
  6  7  1  0
  7  8  2  0
  8  9  1  0
  9 10  2  0
 10 11  1  0
 11 12  1  0
 10 13  1  0
 13 14  2  0
  5 15  1  0
 15 16  1  0
 16 17  1  0
 17 18  1  0
 18 19  1  0
 19 20  1  0
 20 21  1  0
 16 22  2  0
 22 23  1  0
 23  1  1  0
 23  4  2  0
 14  7  1  0
  1 24  1  0
  2 25  1  0
  8 26  1  0
  9 27  1  0
 12 28  1  0
 12 29  1  0
 12 30  1  0
 13 31  1  0
 14 32  1  0
 15 33  1  0
 17 34  1  0
 18 35  1  0
 18 36  1  0
 19 37  1  0
 19 38  1  0
 20 39  1  0
 20 40  1  0
 21 41  1  0
M  END
>  <ScrubInfo>  (10) 
{"isomerGroup": 0, "isomerId": 9, "confId": 0, "nr_conformers:": 1, "nr_isomers:": 14}

$$$$
_i10
     RDKit          3D

 41 43  0  0  0  0  0  0  0  0999 V2000
   -2.3718   -4.0215    1.1109 N   0  0  0  0  0  0  0  0  0  0  0  0
   -1.2536   -4.7699    1.3423 C   0  0  0  0  0  0  0  0  0  0  0  0
   -0.1222   -4.1049    1.3659 N   0  0  0  0  0  0  0  0  0  0  0  0
   -0.5223   -2.7908    1.1270 C   0  0  0  0  0  0  0  0  0  0  0  0
    0.1536   -1.6359    1.0045 C   0  0  0  0  0  0  0  0  0  0  0  0
    1.5282   -1.6112    1.1579 N   0  0  0  0  0  0  0  0  0  0  0  0
    2.4752   -0.7510    0.5743 C   0  0  0  0  0  0  0  0  0  0  0  0
    2.1930    0.1183   -0.4848 C   0  0  0  0  0  0  0  0  0  0  0  0
    3.1678    0.9911   -0.9906 C   0  0  0  0  0  0  0  0  0  0  0  0
    4.4453    1.0146   -0.4366 C   0  0  0  0  0  0  0  0  0  0  0  0
    5.4819    1.8130   -0.8315 O   0  0  0  0  0  0  0  0  0  0  0  0
    5.2204    2.7280   -1.8885 C   0  0  0  0  0  0  0  0  0  0  0  0
    4.7373    0.1559    0.6221 C   0  0  0  0  0  0  0  0  0  0  0  0
    3.7633   -0.7136    1.1235 C   0  0  0  0  0  0  0  0  0  0  0  0
   -0.6193   -0.5116    0.7822 N   0  0  0  0  0  0  0  0  0  0  0  0
   -1.9873   -0.4961    0.6931 C   0  0  0  0  0  0  0  0  0  0  0  0
   -2.5870    0.6416    0.5477 N   0  0  0  0  0  0  0  0  0  0  0  0
   -4.0518    0.6149    0.4656 C   0  0  0  0  0  0  0  0  0  0  0  0
   -4.5720    2.0481    0.3187 C   0  0  0  0  0  0  0  0  0  0  0  0
   -4.0999    2.7159   -0.9706 C   0  0  0  0  0  0  0  0  0  0  0  0
   -2.6986    2.9606   -0.9397 O   0  0  0  0  0  0  0  0  0  0  0  0
   -2.7213   -1.6641    0.7594 N   0  0  0  0  0  0  0  0  0  0  0  0
   -2.0119   -2.7144    0.9679 C   0  0  0  0  0  0  0  0  0  0  0  0
   -3.3234   -4.3468    1.0819 H   0  0  0  0  0  0  0  0  0  0  0  0
   -1.3815   -5.8528    1.4905 H   0  0  0  0  0  0  0  0  0  0  0  0
    1.9100   -2.5231    1.4109 H   0  0  0  0  0  0  0  0  0  0  0  0
    1.2207    0.1104   -0.9692 H   0  0  0  0  0  0  0  0  0  0  0  0
    2.8917    1.6325   -1.8210 H   0  0  0  0  0  0  0  0  0  0  0  0
    4.4362    3.4398   -1.6103 H   0  0  0  0  0  0  0  0  0  0  0  0
    4.9662    2.1998   -2.8133 H   0  0  0  0  0  0  0  0  0  0  0  0
    6.1367    3.2974   -2.0718 H   0  0  0  0  0  0  0  0  0  0  0  0
    5.7291    0.1667    1.0671 H   0  0  0  0  0  0  0  0  0  0  0  0
    4.0186   -1.3563    1.9626 H   0  0  0  0  0  0  0  0  0  0  0  0
   -0.1511    0.3789    0.8664 H   0  0  0  0  0  0  0  0  0  0  0  0
   -4.4787    0.1853    1.3799 H   0  0  0  0  0  0  0  0  0  0  0  0
   -4.3834    0.0198   -0.3940 H   0  0  0  0  0  0  0  0  0  0  0  0
   -5.6675    2.0273    0.3300 H   0  0  0  0  0  0  0  0  0  0  0  0
   -4.2369    2.6408    1.1786 H   0  0  0  0  0  0  0  0  0  0  0  0
   -4.3250    2.0947   -1.8434 H   0  0  0  0  0  0  0  0  0  0  0  0
   -4.6012    3.6797   -1.1009 H   0  0  0  0  0  0  0  0  0  0  0  0
   -2.3075    2.1888   -0.4760 H   0  0  0  0  0  0  0  0  0  0  0  0
  1  2  1  0
  2  3  2  0
  3  4  1  0
  4  5  2  0
  5  6  1  0
  6  7  1  0
  7  8  2  0
  8  9  1  0
  9 10  2  0
 10 11  1  0
 11 12  1  0
 10 13  1  0
 13 14  2  0
  5 15  1  0
 15 16  1  0
 16 17  2  3
 17 18  1  0
 18 19  1  0
 19 20  1  0
 20 21  1  0
 16 22  1  0
 22 23  2  0
 23  1  1  0
 23  4  1  0
 14  7  1  0
  1 24  1  0
  2 25  1  0
  6 26  1  0
  8 27  1  0
  9 28  1  0
 12 29  1  0
 12 30  1  0
 12 31  1  0
 13 32  1  0
 14 33  1  0
 15 34  1  0
 18 35  1  0
 18 36  1  0
 19 37  1  0
 19 38  1  0
 20 39  1  0
 20 40  1  0
 21 41  1  0
M  END
>  <ScrubInfo>  (11) 
{"isomerGroup": 0, "isomerId": 10, "confId": 0, "nr_conformers:": 1, "nr_isomers:": 14}

$$$$
_i11
     RDKit          3D

 41 43  0  0  0  0  0  0  0  0999 V2000
   -2.1646   -1.2294   -0.4284 N   0  0  0  0  0  0  0  0  0  0  0  0
   -1.0268   -1.9490   -0.6196 C   0  0  0  0  0  0  0  0  0  0  0  0
   -0.8038   -2.9964   -1.3554 N   0  0  0  0  0  0  0  0  0  0  0  0
    0.5373   -3.2745   -1.1184 C   0  0  0  0  0  0  0  0  0  0  0  0
    1.1757   -2.4870   -0.3022 N   0  0  0  0  0  0  0  0  0  0  0  0
    0.2206   -1.5835    0.0672 C   0  0  0  0  0  0  0  0  0  0  0  0
    0.1716   -0.5150    0.8957 C   0  0  0  0  0  0  0  0  0  0  0  0
    1.2433   -0.0722    1.6542 N   0  0  0  0  0  0  0  0  0  0  0  0
    2.5717    0.1846    1.2577 C   0  0  0  0  0  0  0  0  0  0  0  0
    3.0179    0.1395   -0.0663 C   0  0  0  0  0  0  0  0  0  0  0  0
    4.3628    0.3709   -0.3922 C   0  0  0  0  0  0  0  0  0  0  0  0
    5.2924    0.6406    0.6089 C   0  0  0  0  0  0  0  0  0  0  0  0
    6.6255    0.8834    0.4292 O   0  0  0  0  0  0  0  0  0  0  0  0
    7.1127    0.8260   -0.9054 C   0  0  0  0  0  0  0  0  0  0  0  0
    4.8643    0.6727    1.9348 C   0  0  0  0  0  0  0  0  0  0  0  0
    3.5227    0.4408    2.2557 C   0  0  0  0  0  0  0  0  0  0  0  0
   -1.0614    0.1295    1.0468 N   0  0  0  0  0  0  0  0  0  0  0  0
   -2.2531   -0.1444    0.4075 C   0  0  0  0  0  0  0  0  0  0  0  0
   -3.2736    0.6052    0.6475 N   0  0  0  0  0  0  0  0  0  0  0  0
   -4.5300    0.3085   -0.0370 C   0  0  0  0  0  0  0  0  0  0  0  0
   -5.5568    1.3623    0.3748 C   0  0  0  0  0  0  0  0  0  0  0  0
   -6.9466    1.0769   -0.1783 C   0  0  0  0  0  0  0  0  0  0  0  0
   -6.9647    1.1592   -1.5964 O   0  0  0  0  0  0  0  0  0  0  0  0
   -2.9797   -1.5299   -0.9366 H   0  0  0  0  0  0  0  0  0  0  0  0
    1.0211   -4.1326   -1.6119 H   0  0  0  0  0  0  0  0  0  0  0  0
    0.9744    0.4708    2.4654 H   0  0  0  0  0  0  0  0  0  0  0  0
    2.3263   -0.0628   -0.8785 H   0  0  0  0  0  0  0  0  0  0  0  0
    4.6432    0.3280   -1.4389 H   0  0  0  0  0  0  0  0  0  0  0  0
    6.9724   -0.1714   -1.3351 H   0  0  0  0  0  0  0  0  0  0  0  0
    6.6458    1.5953   -1.5293 H   0  0  0  0  0  0  0  0  0  0  0  0
    8.1878    1.0278   -0.8777 H   0  0  0  0  0  0  0  0  0  0  0  0
    5.5809    0.8705    2.7278 H   0  0  0  0  0  0  0  0  0  0  0  0
    3.2295    0.4515    3.3023 H   0  0  0  0  0  0  0  0  0  0  0  0
   -1.0666    0.9573    1.6257 H   0  0  0  0  0  0  0  0  0  0  0  0
   -4.8904   -0.6865    0.2499 H   0  0  0  0  0  0  0  0  0  0  0  0
   -4.3898    0.3344   -1.1238 H   0  0  0  0  0  0  0  0  0  0  0  0
   -5.6121    1.4131    1.4690 H   0  0  0  0  0  0  0  0  0  0  0  0
   -5.2158    2.3439    0.0227 H   0  0  0  0  0  0  0  0  0  0  0  0
   -7.3079    0.0890    0.1263 H   0  0  0  0  0  0  0  0  0  0  0  0
   -7.6521    1.8223    0.2022 H   0  0  0  0  0  0  0  0  0  0  0  0
   -6.6040    0.3307   -1.9519 H   0  0  0  0  0  0  0  0  0  0  0  0
  1  2  1  0
  2  3  2  0
  3  4  1  0
  4  5  2  0
  5  6  1  0
  6  7  2  0
  7  8  1  0
  8  9  1  0
  9 10  2  0
 10 11  1  0
 11 12  2  0
 12 13  1  0
 13 14  1  0
 12 15  1  0
 15 16  2  0
  7 17  1  0
 17 18  1  0
 18 19  2  3
 19 20  1  0
 20 21  1  0
 21 22  1  0
 22 23  1  0
 18  1  1  0
  6  2  1  0
 16  9  1  0
  1 24  1  0
  4 25  1  0
  8 26  1  0
 10 27  1  0
 11 28  1  0
 14 29  1  0
 14 30  1  0
 14 31  1  0
 15 32  1  0
 16 33  1  0
 17 34  1  0
 20 35  1  0
 20 36  1  0
 21 37  1  0
 21 38  1  0
 22 39  1  0
 22 40  1  0
 23 41  1  0
M  END
>  <ScrubInfo>  (12) 
{"isomerGroup": 0, "isomerId": 11, "confId": 0, "nr_conformers:": 1, "nr_isomers:": 14}

$$$$
_i12
     RDKit          3D

 41 43  0  0  0  0  0  0  0  0999 V2000
   -1.7388   -2.5048   -0.5836 N   0  0  0  0  0  0  0  0  0  0  0  0
   -0.5096   -2.9346   -1.0267 C   0  0  0  0  0  0  0  0  0  0  0  0
    0.3638   -1.9475   -1.1105 N   0  0  0  0  0  0  0  0  0  0  0  0
   -0.3241   -0.8369   -0.6905 C   0  0  0  0  0  0  0  0  0  0  0  0
    0.0398    0.5685   -0.5811 C   0  0  0  0  0  0  0  0  0  0  0  0
    1.3184    0.9193   -0.9333 N   0  0  0  0  0  0  0  0  0  0  0  0
    2.5118    0.4304   -0.3486 C   0  0  0  0  0  0  0  0  0  0  0  0
    3.7325    0.8256   -0.9170 C   0  0  0  0  0  0  0  0  0  0  0  0
    4.9568    0.3834   -0.3989 C   0  0  0  0  0  0  0  0  0  0  0  0
    4.9811   -0.4698    0.7013 C   0  0  0  0  0  0  0  0  0  0  0  0
    6.0981   -0.9742    1.3069 O   0  0  0  0  0  0  0  0  0  0  0  0
    7.3523   -0.6110    0.7444 C   0  0  0  0  0  0  0  0  0  0  0  0
    3.7730   -0.8732    1.2701 C   0  0  0  0  0  0  0  0  0  0  0  0
    2.5505   -0.4315    0.7501 C   0  0  0  0  0  0  0  0  0  0  0  0
   -0.8581    1.4573   -0.2435 N   0  0  0  0  0  0  0  0  0  0  0  0
   -2.1500    1.0549    0.0806 C   0  0  0  0  0  0  0  0  0  0  0  0
   -2.9078    2.0440    0.3974 N   0  0  0  0  0  0  0  0  0  0  0  0
   -4.2747    1.8235    0.8555 C   0  0  0  0  0  0  0  0  0  0  0  0
   -5.2614    1.8636   -0.3139 C   0  0  0  0  0  0  0  0  0  0  0  0
   -5.9717    0.5308   -0.5185 C   0  0  0  0  0  0  0  0  0  0  0  0
   -5.0439   -0.4772   -0.9108 O   0  0  0  0  0  0  0  0  0  0  0  0
   -2.5182   -0.2821    0.0378 N   0  0  0  0  0  0  0  0  0  0  0  0
   -1.6078   -1.1743   -0.3714 C   0  0  0  0  0  0  0  0  0  0  0  0
   -2.5632   -3.0728   -0.4481 H   0  0  0  0  0  0  0  0  0  0  0  0
   -0.3169   -3.9703   -1.2744 H   0  0  0  0  0  0  0  0  0  0  0  0
    1.3856    1.9291   -1.0159 H   0  0  0  0  0  0  0  0  0  0  0  0
    3.7382    1.4791   -1.7866 H   0  0  0  0  0  0  0  0  0  0  0  0
    5.8663    0.7214   -0.8831 H   0  0  0  0  0  0  0  0  0  0  0  0
    7.4402   -0.9657   -0.2879 H   0  0  0  0  0  0  0  0  0  0  0  0
    7.5145    0.4702    0.8068 H   0  0  0  0  0  0  0  0  0  0  0  0
    8.1360   -1.0992    1.3317 H   0  0  0  0  0  0  0  0  0  0  0  0
    3.7780   -1.5428    2.1266 H   0  0  0  0  0  0  0  0  0  0  0  0
    1.6387   -0.7727    1.2308 H   0  0  0  0  0  0  0  0  0  0  0  0
   -4.5145    2.6497    1.5360 H   0  0  0  0  0  0  0  0  0  0  0  0
   -4.3724    0.9173    1.4649 H   0  0  0  0  0  0  0  0  0  0  0  0
   -6.0232    2.6249   -0.1078 H   0  0  0  0  0  0  0  0  0  0  0  0
   -4.7512    2.1544   -1.2399 H   0  0  0  0  0  0  0  0  0  0  0  0
   -6.4633    0.2024    0.4026 H   0  0  0  0  0  0  0  0  0  0  0  0
   -6.7368    0.6157   -1.2970 H   0  0  0  0  0  0  0  0  0  0  0  0
   -4.7529   -0.2363   -1.8129 H   0  0  0  0  0  0  0  0  0  0  0  0
   -3.5152   -0.4885    0.0744 H   0  0  0  0  0  0  0  0  0  0  0  0
  1  2  1  0
  2  3  2  0
  3  4  1  0
  4  5  1  0
  5  6  1  0
  6  7  1  0
  7  8  2  0
  8  9  1  0
  9 10  2  0
 10 11  1  0
 11 12  1  0
 10 13  1  0
 13 14  2  0
  5 15  2  0
 15 16  1  0
 16 17  2  3
 17 18  1  0
 18 19  1  0
 19 20  1  0
 20 21  1  0
 16 22  1  0
 22 23  1  0
 23  1  1  0
 23  4  2  0
 14  7  1  0
  1 24  1  0
  2 25  1  0
  6 26  1  0
  8 27  1  0
  9 28  1  0
 12 29  1  0
 12 30  1  0
 12 31  1  0
 13 32  1  0
 14 33  1  0
 18 34  1  0
 18 35  1  0
 19 36  1  0
 19 37  1  0
 20 38  1  0
 20 39  1  0
 21 40  1  0
 22 41  1  0
M  END
>  <ScrubInfo>  (13) 
{"isomerGroup": 0, "isomerId": 12, "confId": 0, "nr_conformers:": 1, "nr_isomers:": 14}

$$$$
_i13
     RDKit          3D

 41 43  0  0  0  0  0  0  0  0999 V2000
   -2.0405    0.1112   -0.5104 N   0  0  0  0  0  0  0  0  0  0  0  0
   -2.0943   -0.1211    0.8455 C   0  0  0  0  0  0  0  0  0  0  0  0
   -3.3340   -0.2776    1.3890 N   0  0  0  0  0  0  0  0  0  0  0  0
   -4.5754    0.2740    0.8883 C   0  0  0  0  0  0  0  0  0  0  0  0
   -5.3489   -0.8029    0.1294 C   0  0  0  0  0  0  0  0  0  0  0  0
   -6.5674   -0.2270   -0.5736 C   0  0  0  0  0  0  0  0  0  0  0  0
   -6.1396    0.6728   -1.5887 O   0  0  0  0  0  0  0  0  0  0  0  0
   -1.0595   -0.2123    1.6381 N   0  0  0  0  0  0  0  0  0  0  0  0
    0.2299   -0.0601    1.1266 C   0  0  0  0  0  0  0  0  0  0  0  0
    1.2040   -0.1355    1.9796 N   0  0  0  0  0  0  0  0  0  0  0  0
    2.5314    0.0110    1.5675 C   0  0  0  0  0  0  0  0  0  0  0  0
    3.2895   -1.1078    1.2154 C   0  0  0  0  0  0  0  0  0  0  0  0
    4.6340   -0.9745    0.8485 C   0  0  0  0  0  0  0  0  0  0  0  0
    5.2367    0.2840    0.8468 C   0  0  0  0  0  0  0  0  0  0  0  0
    6.5360    0.5538    0.5130 O   0  0  0  0  0  0  0  0  0  0  0  0
    7.3323   -0.5498    0.1022 C   0  0  0  0  0  0  0  0  0  0  0  0
    4.4854    1.4007    1.2214 C   0  0  0  0  0  0  0  0  0  0  0  0
    3.1434    1.2648    1.5868 C   0  0  0  0  0  0  0  0  0  0  0  0
    0.3333    0.1692   -0.3181 C   0  0  0  0  0  0  0  0  0  0  0  0
    1.4142    0.3333   -1.1575 N   0  0  0  0  0  0  0  0  0  0  0  0
    0.8970    0.4994   -2.3592 C   0  0  0  0  0  0  0  0  0  0  0  0
   -0.4751    0.4462   -2.3422 N   0  0  0  0  0  0  0  0  0  0  0  0
   -0.8225    0.2394   -1.0497 C   0  0  0  0  0  0  0  0  0  0  0  0
   -2.8983    0.0822   -1.0438 H   0  0  0  0  0  0  0  0  0  0  0  0
   -3.2796   -0.3609    2.4010 H   0  0  0  0  0  0  0  0  0  0  0  0
   -5.1763    0.6204    1.7374 H   0  0  0  0  0  0  0  0  0  0  0  0
   -4.3846    1.1556    0.2661 H   0  0  0  0  0  0  0  0  0  0  0  0
   -4.6950   -1.2738   -0.6147 H   0  0  0  0  0  0  0  0  0  0  0  0
   -5.6619   -1.5893    0.8264 H   0  0  0  0  0  0  0  0  0  0  0  0
   -7.1440   -1.0288   -1.0453 H   0  0  0  0  0  0  0  0  0  0  0  0
   -7.2145    0.3097    0.1273 H   0  0  0  0  0  0  0  0  0  0  0  0
   -6.9421    0.9923   -2.0397 H   0  0  0  0  0  0  0  0  0  0  0  0
    2.8253   -2.0897    1.2242 H   0  0  0  0  0  0  0  0  0  0  0  0
    5.1756   -1.8723    0.5742 H   0  0  0  0  0  0  0  0  0  0  0  0
    8.3292   -0.1701   -0.1415 H   0  0  0  0  0  0  0  0  0  0  0  0
    7.4433   -1.2793    0.9112 H   0  0  0  0  0  0  0  0  0  0  0  0
    6.9250   -1.0176   -0.8003 H   0  0  0  0  0  0  0  0  0  0  0  0
    4.9467    2.3842    1.2307 H   0  0  0  0  0  0  0  0  0  0  0  0
    2.5711    2.1378    1.8846 H   0  0  0  0  0  0  0  0  0  0  0  0
    1.4582    0.6603   -3.2703 H   0  0  0  0  0  0  0  0  0  0  0  0
   -1.0879    0.5482   -3.1380 H   0  0  0  0  0  0  0  0  0  0  0  0
  1  2  1  0
  2  3  1  0
  3  4  1  0
  4  5  1  0
  5  6  1  0
  6  7  1  0
  2  8  2  0
  8  9  1  0
  9 10  2  3
 10 11  1  0
 11 12  2  0
 12 13  1  0
 13 14  2  0
 14 15  1  0
 15 16  1  0
 14 17  1  0
 17 18  2  0
  9 19  1  0
 19 20  1  0
 20 21  2  0
 21 22  1  0
 22 23  1  0
 23  1  1  0
 18 11  1  0
 23 19  2  0
  1 24  1  0
  3 25  1  0
  4 26  1  0
  4 27  1  0
  5 28  1  0
  5 29  1  0
  6 30  1  0
  6 31  1  0
  7 32  1  0
 12 33  1  0
 13 34  1  0
 16 35  1  0
 16 36  1  0
 16 37  1  0
 17 38  1  0
 18 39  1  0
 21 40  1  0
 22 41  1  0
M  END
>  <ScrubInfo>  (14) 
{"isomerGroup": 0, "isomerId": 13, "confId": 0, "nr_conformers:": 1, "nr_isomers:": 14}

$$$$
