_i0
     RDKit          3D

 48 51  0  0  0  0  0  0  0  0999 V2000
    8.2848    1.8481   -0.2817 N   0  0  0  0  0  0  0  0  0  0  0  0
    7.5862    0.8739    0.3777 C   0  0  0  0  0  0  0  0  0  0  0  0
    8.1717    0.0130    1.0218 O   0  0  0  0  0  0  0  0  0  0  0  0
    6.1055    0.8819    0.2414 C   0  0  0  0  0  0  0  0  0  0  0  0
    5.3927    2.0374   -0.0859 C   0  0  0  0  0  0  0  0  0  0  0  0
    3.9974    1.9886   -0.2014 C   0  0  0  0  0  0  0  0  0  0  0  0
    3.2811    0.7985    0.0132 C   0  0  0  0  0  0  0  0  0  0  0  0
    1.8915    0.8214   -0.1365 N   0  0  0  0  0  0  0  0  0  0  0  0
    0.8880   -0.1396   -0.0351 C   0  0  0  0  0  0  0  0  0  0  0  0
   -0.3536    0.3313   -0.2122 N   0  0  0  0  0  0  0  0  0  0  0  0
   -1.3808   -0.5340   -0.1437 C   0  0  0  0  0  0  0  0  0  0  0  0
   -2.6938   -0.0468   -0.3228 N   0  0  0  0  0  0  0  0  0  0  0  0
   -2.7906    1.3662   -0.7055 C   0  0  0  0  0  0  0  0  0  0  0  0
   -4.2583    1.7481   -0.9441 C   0  0  0  0  0  0  0  0  0  0  0  0
   -5.1442    1.6775    0.2908 C   0  0  0  0  0  0  0  0  0  0  0  0
   -6.5050    1.4760   -0.3274 C   0  0  0  0  0  0  0  0  0  0  0  0
   -6.1899    0.5552   -1.4867 C   0  0  0  0  0  0  0  0  0  0  0  0
   -4.8597    0.8717   -1.9256 O   0  0  0  0  0  0  0  0  0  0  0  0
   -1.1871   -1.8943    0.1429 C   0  0  0  0  0  0  0  0  0  0  0  0
   -2.2179   -2.8604    0.2808 C   0  0  0  0  0  0  0  0  0  0  0  0
   -1.9174   -4.1920    0.5576 C   0  0  0  0  0  0  0  0  0  0  0  0
   -0.5908   -4.5723    0.7029 C   0  0  0  0  0  0  0  0  0  0  0  0
    0.4214   -3.6167    0.5767 C   0  0  0  0  0  0  0  0  0  0  0  0
    0.1448   -2.2819    0.3034 C   0  0  0  0  0  0  0  0  0  0  0  0
    1.1628   -1.4239    0.2086 N   0  0  0  0  0  0  0  0  0  0  0  0
    4.0127   -0.3449    0.3480 C   0  0  0  0  0  0  0  0  0  0  0  0
    5.4081   -0.3065    0.4691 C   0  0  0  0  0  0  0  0  0  0  0  0
    7.8788    2.3665   -1.0469 H   0  0  0  0  0  0  0  0  0  0  0  0
    9.2908    1.7339   -0.2839 H   0  0  0  0  0  0  0  0  0  0  0  0
    5.8966    2.9881   -0.2302 H   0  0  0  0  0  0  0  0  0  0  0  0
    3.4672    2.9033   -0.4577 H   0  0  0  0  0  0  0  0  0  0  0  0
    1.4601    1.7161   -0.3136 H   0  0  0  0  0  0  0  0  0  0  0  0
   -3.1673   -0.6151   -1.0256 H   0  0  0  0  0  0  0  0  0  0  0  0
   -2.3679    2.0120    0.0731 H   0  0  0  0  0  0  0  0  0  0  0  0
   -2.2397    1.5252   -1.6412 H   0  0  0  0  0  0  0  0  0  0  0  0
   -4.2963    2.7619   -1.3624 H   0  0  0  0  0  0  0  0  0  0  0  0
   -4.8971    0.8133    0.9180 H   0  0  0  0  0  0  0  0  0  0  0  0
   -5.0784    2.5768    0.9096 H   0  0  0  0  0  0  0  0  0  0  0  0
   -6.8880    2.4326   -0.7023 H   0  0  0  0  0  0  0  0  0  0  0  0
   -7.2437    1.0577    0.3612 H   0  0  0  0  0  0  0  0  0  0  0  0
   -6.1942   -0.4937   -1.1715 H   0  0  0  0  0  0  0  0  0  0  0  0
   -6.8897    0.6725   -2.3188 H   0  0  0  0  0  0  0  0  0  0  0  0
   -3.2606   -2.5669    0.1842 H   0  0  0  0  0  0  0  0  0  0  0  0
   -2.7138   -4.9238    0.6631 H   0  0  0  0  0  0  0  0  0  0  0  0
   -0.3364   -5.6065    0.9203 H   0  0  0  0  0  0  0  0  0  0  0  0
    1.4584   -3.9226    0.6997 H   0  0  0  0  0  0  0  0  0  0  0  0
    3.5165   -1.2935    0.5301 H   0  0  0  0  0  0  0  0  0  0  0  0
    5.9452   -1.2138    0.7392 H   0  0  0  0  0  0  0  0  0  0  0  0
  1  2  1  0
  2  3  2  0
  2  4  1  0
  4  5  2  0
  5  6  1  0
  6  7  2  0
  7  8  1  0
  8  9  1  0
  9 10  2  0
 10 11  1  0
 11 12  1  0
 12 13  1  0
 13 14  1  0
 14 15  1  0
 15 16  1  0
 16 17  1  0
 17 18  1  0
 11 19  2  0
 19 20  1  0
 20 21  2  0
 21 22  1  0
 22 23  2  0
 23 24  1  0
 24 25  2  0
  7 26  1  0
 26 27  2  0
 27  4  1  0
 25  9  1  0
 18 14  1  0
 24 19  1  0
  1 28  1  0
  1 29  1  0
  5 30  1  0
  6 31  1  0
  8 32  1  0
 12 33  1  0
 13 34  1  0
 13 35  1  0
 14 36  1  0
 15 37  1  0
 15 38  1  0
 16 39  1  0
 16 40  1  0
 17 41  1  0
 17 42  1  0
 20 43  1  0
 21 44  1  0
 22 45  1  0
 23 46  1  0
 26 47  1  0
 27 48  1  0
M  END
>  <ScrubInfo>  (1) 
{"isomerGroup": 0, "isomerId": 0, "confId": 0, "nr_conformers:": 1, "nr_isomers:": 6}

$$$$
_i1
     RDKit          3D

 48 51  0  0  0  0  0  0  0  0999 V2000
    0.4371   -1.1826   -0.2766 N   0  0  0  0  0  0  0  0  0  0  0  0
   -0.7501   -1.5179    0.3291 C   0  0  0  0  0  0  0  0  0  0  0  0
   -1.2304   -0.7052    1.3534 N   0  0  0  0  0  0  0  0  0  0  0  0
   -1.1949    0.7622    1.3144 C   0  0  0  0  0  0  0  0  0  0  0  0
   -2.3689    1.2990    0.4861 C   0  0  0  0  0  0  0  0  0  0  0  0
   -2.4038    2.8150    0.4059 C   0  0  0  0  0  0  0  0  0  0  0  0
   -3.8662    3.0673    0.1372 C   0  0  0  0  0  0  0  0  0  0  0  0
   -4.5328    2.0150    0.9983 C   0  0  0  0  0  0  0  0  0  0  0  0
   -3.6238    0.9069    1.0906 O   0  0  0  0  0  0  0  0  0  0  0  0
   -1.3807   -2.6416   -0.0953 C   0  0  0  0  0  0  0  0  0  0  0  0
   -2.6328   -3.1860    0.4018 C   0  0  0  0  0  0  0  0  0  0  0  0
   -3.1639   -4.2972   -0.1278 C   0  0  0  0  0  0  0  0  0  0  0  0
   -2.5188   -4.9973   -1.2104 C   0  0  0  0  0  0  0  0  0  0  0  0
   -1.3592   -4.5829   -1.7365 C   0  0  0  0  0  0  0  0  0  0  0  0
   -0.6729   -3.3637   -1.2207 C   0  0  0  0  0  0  0  0  0  0  0  0
    0.4542   -3.0235   -1.7647 N   0  0  0  0  0  0  0  0  0  0  0  0
    1.0606   -1.9064   -1.2566 C   0  0  0  0  0  0  0  0  0  0  0  0
    2.2185   -1.6476   -1.7832 N   0  0  0  0  0  0  0  0  0  0  0  0
    2.9278   -0.5223   -1.3543 C   0  0  0  0  0  0  0  0  0  0  0  0
    3.9125   -0.6489   -0.3712 C   0  0  0  0  0  0  0  0  0  0  0  0
    4.6206    0.4715    0.0741 C   0  0  0  0  0  0  0  0  0  0  0  0
    4.3529    1.7301   -0.4782 C   0  0  0  0  0  0  0  0  0  0  0  0
    5.0665    2.9542   -0.0302 C   0  0  0  0  0  0  0  0  0  0  0  0
    6.3173    2.7939    0.4983 N   0  0  0  0  0  0  0  0  0  0  0  0
    4.5709    4.0667   -0.1543 O   0  0  0  0  0  0  0  0  0  0  0  0
    3.3703    1.8587   -1.4674 C   0  0  0  0  0  0  0  0  0  0  0  0
    2.6710    0.7336   -1.9105 C   0  0  0  0  0  0  0  0  0  0  0  0
    0.9745   -0.4728    0.1919 H   0  0  0  0  0  0  0  0  0  0  0  0
   -2.1508   -0.9954    1.6821 H   0  0  0  0  0  0  0  0  0  0  0  0
   -1.2860    1.1121    2.3492 H   0  0  0  0  0  0  0  0  0  0  0  0
   -0.2408    1.1331    0.9260 H   0  0  0  0  0  0  0  0  0  0  0  0
   -2.3552    0.8683   -0.5232 H   0  0  0  0  0  0  0  0  0  0  0  0
   -1.7443    3.2147   -0.3694 H   0  0  0  0  0  0  0  0  0  0  0  0
   -2.1224    3.2666    1.3649 H   0  0  0  0  0  0  0  0  0  0  0  0
   -4.1895    4.0832    0.3787 H   0  0  0  0  0  0  0  0  0  0  0  0
   -4.0876    2.8802   -0.9203 H   0  0  0  0  0  0  0  0  0  0  0  0
   -5.4859    1.6756    0.5830 H   0  0  0  0  0  0  0  0  0  0  0  0
   -4.7067    2.3863    2.0137 H   0  0  0  0  0  0  0  0  0  0  0  0
   -3.1528   -2.6905    1.2128 H   0  0  0  0  0  0  0  0  0  0  0  0
   -4.1009   -4.6976    0.2487 H   0  0  0  0  0  0  0  0  0  0  0  0
   -3.0057   -5.8883   -1.5958 H   0  0  0  0  0  0  0  0  0  0  0  0
   -0.8714   -5.1091   -2.5485 H   0  0  0  0  0  0  0  0  0  0  0  0
    4.1203   -1.6294    0.0512 H   0  0  0  0  0  0  0  0  0  0  0  0
    5.3566    0.3464    0.8626 H   0  0  0  0  0  0  0  0  0  0  0  0
    6.8561    1.9540    0.3409 H   0  0  0  0  0  0  0  0  0  0  0  0
    6.8347    3.6480    0.6655 H   0  0  0  0  0  0  0  0  0  0  0  0
    3.1551    2.8325   -1.9029 H   0  0  0  0  0  0  0  0  0  0  0  0
    1.9215    0.8313   -2.6920 H   0  0  0  0  0  0  0  0  0  0  0  0
  1  2  1  0
  2  3  1  0
  3  4  1  0
  4  5  1  0
  5  6  1  0
  6  7  1  0
  7  8  1  0
  8  9  1  0
  2 10  2  0
 10 11  1  0
 11 12  2  0
 12 13  1  0
 13 14  2  0
 14 15  1  0
 15 16  2  0
 16 17  1  0
 17 18  2  3
 18 19  1  0
 19 20  2  0
 20 21  1  0
 21 22  2  0
 22 23  1  0
 23 24  1  0
 23 25  2  0
 22 26  1  0
 26 27  2  0
 17  1  1  0
 27 19  1  0
  9  5  1  0
 15 10  1  0
  1 28  1  0
  3 29  1  0
  4 30  1  0
  4 31  1  0
  5 32  1  0
  6 33  1  0
  6 34  1  0
  7 35  1  0
  7 36  1  0
  8 37  1  0
  8 38  1  0
 11 39  1  0
 12 40  1  0
 13 41  1  0
 14 42  1  0
 20 43  1  0
 21 44  1  0
 24 45  1  0
 24 46  1  0
 26 47  1  0
 27 48  1  0
M  END
>  <ScrubInfo>  (2) 
{"isomerGroup": 0, "isomerId": 1, "confId": 0, "nr_conformers:": 1, "nr_isomers:": 6}

$$$$
_i2
     RDKit          3D

 48 51  0  0  0  0  0  0  0  0999 V2000
   -0.6974    0.4100    0.6695 N   0  0  0  0  0  0  0  0  0  0  0  0
    0.6476    0.5325    0.4239 C   0  0  0  0  0  0  0  0  0  0  0  0
    1.3466   -0.5824    0.8213 N   0  0  0  0  0  0  0  0  0  0  0  0
    2.7149   -0.8692    0.6330 C   0  0  0  0  0  0  0  0  0  0  0  0
    3.5177   -0.2377   -0.3239 C   0  0  0  0  0  0  0  0  0  0  0  0
    4.8646   -0.5882   -0.4952 C   0  0  0  0  0  0  0  0  0  0  0  0
    5.4306   -1.6036    0.2790 C   0  0  0  0  0  0  0  0  0  0  0  0
    6.8524   -2.0187    0.1399 C   0  0  0  0  0  0  0  0  0  0  0  0
    7.4947   -1.7072   -1.0264 N   0  0  0  0  0  0  0  0  0  0  0  0
    7.4265   -2.6492    1.0191 O   0  0  0  0  0  0  0  0  0  0  0  0
    4.6407   -2.2512    1.2324 C   0  0  0  0  0  0  0  0  0  0  0  0
    3.2974   -1.8940    1.3975 C   0  0  0  0  0  0  0  0  0  0  0  0
    1.1528    1.6016   -0.1187 N   0  0  0  0  0  0  0  0  0  0  0  0
    0.2698    2.6563   -0.4414 C   0  0  0  0  0  0  0  0  0  0  0  0
    0.8082    3.8167   -1.0038 C   0  0  0  0  0  0  0  0  0  0  0  0
   -0.0144    4.8949   -1.3442 C   0  0  0  0  0  0  0  0  0  0  0  0
   -1.3904    4.8241   -1.1249 C   0  0  0  0  0  0  0  0  0  0  0  0
   -1.9480    3.6755   -0.5644 C   0  0  0  0  0  0  0  0  0  0  0  0
   -1.1185    2.6008   -0.2252 C   0  0  0  0  0  0  0  0  0  0  0  0
   -1.6596    1.3464    0.3726 C   0  0  0  0  0  0  0  0  0  0  0  0
   -2.9354    1.2453    0.5393 N   0  0  0  0  0  0  0  0  0  0  0  0
   -3.4970    0.0364    1.1401 C   0  0  0  0  0  0  0  0  0  0  0  0
   -3.7784   -1.0232    0.0741 C   0  0  0  0  0  0  0  0  0  0  0  0
   -4.9899   -0.7219   -0.7935 C   0  0  0  0  0  0  0  0  0  0  0  0
   -5.4001   -2.1065   -1.2278 C   0  0  0  0  0  0  0  0  0  0  0  0
   -5.1362   -2.9176    0.0230 C   0  0  0  0  0  0  0  0  0  0  0  0
   -4.0319   -2.2968    0.7003 O   0  0  0  0  0  0  0  0  0  0  0  0
   -1.0244   -0.5041    0.9332 H   0  0  0  0  0  0  0  0  0  0  0  0
    0.9522   -1.0789    1.6081 H   0  0  0  0  0  0  0  0  0  0  0  0
    3.1134    0.5443   -0.9613 H   0  0  0  0  0  0  0  0  0  0  0  0
    5.4510   -0.0382   -1.2247 H   0  0  0  0  0  0  0  0  0  0  0  0
    6.9979   -1.4417   -1.8639 H   0  0  0  0  0  0  0  0  0  0  0  0
    8.4175   -2.1072   -1.1411 H   0  0  0  0  0  0  0  0  0  0  0  0
    5.0668   -3.0405    1.8492 H   0  0  0  0  0  0  0  0  0  0  0  0
    2.7139   -2.4289    2.1433 H   0  0  0  0  0  0  0  0  0  0  0  0
    1.8799    3.8780   -1.1746 H   0  0  0  0  0  0  0  0  0  0  0  0
    0.4218    5.7905   -1.7796 H   0  0  0  0  0  0  0  0  0  0  0  0
   -2.0282    5.6639   -1.3895 H   0  0  0  0  0  0  0  0  0  0  0  0
   -3.0196    3.6201   -0.3923 H   0  0  0  0  0  0  0  0  0  0  0  0
   -4.4267    0.3025    1.6577 H   0  0  0  0  0  0  0  0  0  0  0  0
   -2.8547   -0.3683    1.9319 H   0  0  0  0  0  0  0  0  0  0  0  0
   -2.8965   -1.1651   -0.5630 H   0  0  0  0  0  0  0  0  0  0  0  0
   -4.7596   -0.0552   -1.6292 H   0  0  0  0  0  0  0  0  0  0  0  0
   -5.7961   -0.2687   -0.2043 H   0  0  0  0  0  0  0  0  0  0  0  0
   -4.7487   -2.4491   -2.0406 H   0  0  0  0  0  0  0  0  0  0  0  0
   -6.4366   -2.1723   -1.5684 H   0  0  0  0  0  0  0  0  0  0  0  0
   -5.9969   -2.8932    0.6998 H   0  0  0  0  0  0  0  0  0  0  0  0
   -4.8937   -3.9611   -0.1963 H   0  0  0  0  0  0  0  0  0  0  0  0
  1  2  1  0
  2  3  1  0
  3  4  1  0
  4  5  2  0
  5  6  1  0
  6  7  2  0
  7  8  1  0
  8  9  1  0
  8 10  2  0
  7 11  1  0
 11 12  2  0
  2 13  2  0
 13 14  1  0
 14 15  2  0
 15 16  1  0
 16 17  2  0
 17 18  1  0
 18 19  2  0
 19 20  1  0
 20 21  2  3
 21 22  1  0
 22 23  1  0
 23 24  1  0
 24 25  1  0
 25 26  1  0
 26 27  1  0
 20  1  1  0
 27 23  1  0
 12  4  1  0
 19 14  1  0
  1 28  1  0
  3 29  1  0
  5 30  1  0
  6 31  1  0
  9 32  1  0
  9 33  1  0
 11 34  1  0
 12 35  1  0
 15 36  1  0
 16 37  1  0
 17 38  1  0
 18 39  1  0
 22 40  1  0
 22 41  1  0
 23 42  1  0
 24 43  1  0
 24 44  1  0
 25 45  1  0
 25 46  1  0
 26 47  1  0
 26 48  1  0
M  END
>  <ScrubInfo>  (3) 
{"isomerGroup": 0, "isomerId": 2, "confId": 0, "nr_conformers:": 1, "nr_isomers:": 6}

$$$$
_i3
     RDKit          3D

 48 51  0  0  0  0  0  0  0  0999 V2000
    0.9584   -1.4682   -0.0292 N   0  0  0  0  0  0  0  0  0  0  0  0
    0.5303   -0.2703   -0.5388 C   0  0  0  0  0  0  0  0  0  0  0  0
    1.2407    0.8144   -0.6191 N   0  0  0  0  0  0  0  0  0  0  0  0
    2.5617    0.8158   -0.1648 C   0  0  0  0  0  0  0  0  0  0  0  0
    2.8576    1.2943    1.1142 C   0  0  0  0  0  0  0  0  0  0  0  0
    4.1750    1.3057    1.5823 C   0  0  0  0  0  0  0  0  0  0  0  0
    5.2110    0.8472    0.7595 C   0  0  0  0  0  0  0  0  0  0  0  0
    6.6262    0.8310    1.2126 C   0  0  0  0  0  0  0  0  0  0  0  0
    6.9877    1.7343    2.1736 N   0  0  0  0  0  0  0  0  0  0  0  0
    7.4472    0.0636    0.7275 O   0  0  0  0  0  0  0  0  0  0  0  0
    4.9175    0.3691   -0.5235 C   0  0  0  0  0  0  0  0  0  0  0  0
    3.5991    0.3667   -0.9859 C   0  0  0  0  0  0  0  0  0  0  0  0
   -0.7423   -0.1193   -1.0284 N   0  0  0  0  0  0  0  0  0  0  0  0
   -1.6076   -1.0867   -0.9240 C   0  0  0  0  0  0  0  0  0  0  0  0
   -2.8790   -0.9311   -1.4526 N   0  0  0  0  0  0  0  0  0  0  0  0
   -3.2442    0.2175   -2.2807 C   0  0  0  0  0  0  0  0  0  0  0  0
   -3.3091    1.5416   -1.5116 C   0  0  0  0  0  0  0  0  0  0  0  0
   -4.1133    1.4826   -0.2217 C   0  0  0  0  0  0  0  0  0  0  0  0
   -4.4901    2.9309   -0.0369 C   0  0  0  0  0  0  0  0  0  0  0  0
   -4.7620    3.3723   -1.4591 C   0  0  0  0  0  0  0  0  0  0  0  0
   -3.9678    2.5448   -2.3219 O   0  0  0  0  0  0  0  0  0  0  0  0
   -1.2613   -2.3772   -0.2431 C   0  0  0  0  0  0  0  0  0  0  0  0
   -2.1884   -3.4008   -0.0175 C   0  0  0  0  0  0  0  0  0  0  0  0
   -1.7777   -4.5801    0.6067 C   0  0  0  0  0  0  0  0  0  0  0  0
   -0.4505   -4.7344    1.0053 C   0  0  0  0  0  0  0  0  0  0  0  0
    0.4681   -3.7037    0.7968 C   0  0  0  0  0  0  0  0  0  0  0  0
    0.0624   -2.5113    0.1905 C   0  0  0  0  0  0  0  0  0  0  0  0
    1.8655   -1.5045    0.4056 H   0  0  0  0  0  0  0  0  0  0  0  0
    2.0507    1.6585    1.7459 H   0  0  0  0  0  0  0  0  0  0  0  0
    4.3697    1.6560    2.5915 H   0  0  0  0  0  0  0  0  0  0  0  0
    6.4323    2.5570    2.3612 H   0  0  0  0  0  0  0  0  0  0  0  0
    7.9810    1.7984    2.3594 H   0  0  0  0  0  0  0  0  0  0  0  0
    5.7155    0.0095   -1.1703 H   0  0  0  0  0  0  0  0  0  0  0  0
    3.3759    0.0163   -1.9907 H   0  0  0  0  0  0  0  0  0  0  0  0
   -3.3197   -1.7837   -1.7762 H   0  0  0  0  0  0  0  0  0  0  0  0
   -2.5611    0.3086   -3.1341 H   0  0  0  0  0  0  0  0  0  0  0  0
   -4.2293    0.0182   -2.7214 H   0  0  0  0  0  0  0  0  0  0  0  0
   -2.3012    1.9195   -1.3053 H   0  0  0  0  0  0  0  0  0  0  0  0
   -3.5448    1.0764    0.6196 H   0  0  0  0  0  0  0  0  0  0  0  0
   -5.0206    0.8803   -0.3522 H   0  0  0  0  0  0  0  0  0  0  0  0
   -5.3449    3.0825    0.6273 H   0  0  0  0  0  0  0  0  0  0  0  0
   -3.6384    3.4882    0.3712 H   0  0  0  0  0  0  0  0  0  0  0  0
   -4.5118    4.4240   -1.6253 H   0  0  0  0  0  0  0  0  0  0  0  0
   -5.8123    3.2179   -1.7274 H   0  0  0  0  0  0  0  0  0  0  0  0
   -3.2293   -3.2970   -0.3035 H   0  0  0  0  0  0  0  0  0  0  0  0
   -2.4935   -5.3799    0.7832 H   0  0  0  0  0  0  0  0  0  0  0  0
   -0.1312   -5.6568    1.4851 H   0  0  0  0  0  0  0  0  0  0  0  0
    1.4981   -3.8382    1.1170 H   0  0  0  0  0  0  0  0  0  0  0  0
  1  2  1  0
  2  3  2  3
  3  4  1  0
  4  5  2  0
  5  6  1  0
  6  7  2  0
  7  8  1  0
  8  9  1  0
  8 10  2  0
  7 11  1  0
 11 12  2  0
  2 13  1  0
 13 14  2  0
 14 15  1  0
 15 16  1  0
 16 17  1  0
 17 18  1  0
 18 19  1  0
 19 20  1  0
 20 21  1  0
 14 22  1  0
 22 23  2  0
 23 24  1  0
 24 25  2  0
 25 26  1  0
 26 27  2  0
 27  1  1  0
 12  4  1  0
 21 17  1  0
 27 22  1  0
  1 28  1  0
  5 29  1  0
  6 30  1  0
  9 31  1  0
  9 32  1  0
 11 33  1  0
 12 34  1  0
 15 35  1  0
 16 36  1  0
 16 37  1  0
 17 38  1  0
 18 39  1  0
 18 40  1  0
 19 41  1  0
 19 42  1  0
 20 43  1  0
 20 44  1  0
 23 45  1  0
 24 46  1  0
 25 47  1  0
 26 48  1  0
M  END
>  <ScrubInfo>  (4) 
{"isomerGroup": 0, "isomerId": 3, "confId": 0, "nr_conformers:": 1, "nr_isomers:": 6}

$$$$
_i4
     RDKit          3D

 48 51  0  0  0  0  0  0  0  0999 V2000
    0.9492   -1.6945   -0.7448 N   0  0  0  0  0  0  0  0  0  0  0  0
    0.6763   -1.1022    0.4562 C   0  0  0  0  0  0  0  0  0  0  0  0
    1.7384   -0.9956    1.3127 N   0  0  0  0  0  0  0  0  0  0  0  0
    3.0328   -0.5187    1.0083 C   0  0  0  0  0  0  0  0  0  0  0  0
    4.0532   -0.7285    1.9468 C   0  0  0  0  0  0  0  0  0  0  0  0
    5.3602   -0.2976    1.6983 C   0  0  0  0  0  0  0  0  0  0  0  0
    5.6682    0.3649    0.5065 C   0  0  0  0  0  0  0  0  0  0  0  0
    7.0708    0.8053    0.2839 C   0  0  0  0  0  0  0  0  0  0  0  0
    7.2787    1.8281   -0.5998 N   0  0  0  0  0  0  0  0  0  0  0  0
    8.0065    0.2997    0.8900 O   0  0  0  0  0  0  0  0  0  0  0  0
    4.6618    0.5725   -0.4419 C   0  0  0  0  0  0  0  0  0  0  0  0
    3.3558    0.1337   -0.1886 C   0  0  0  0  0  0  0  0  0  0  0  0
   -0.4941   -0.7026    0.8531 N   0  0  0  0  0  0  0  0  0  0  0  0
   -1.5670   -0.8521    0.0009 C   0  0  0  0  0  0  0  0  0  0  0  0
   -2.7279   -0.3799    0.3123 N   0  0  0  0  0  0  0  0  0  0  0  0
   -2.8364    0.3164    1.5982 C   0  0  0  0  0  0  0  0  0  0  0  0
   -4.2716    0.8085    1.7930 C   0  0  0  0  0  0  0  0  0  0  0  0
   -4.7128    1.8412    0.7660 C   0  0  0  0  0  0  0  0  0  0  0  0
   -5.7954    2.5725    1.5181 C   0  0  0  0  0  0  0  0  0  0  0  0
   -5.2267    2.6160    2.9196 C   0  0  0  0  0  0  0  0  0  0  0  0
   -4.4160    1.4436    3.0814 O   0  0  0  0  0  0  0  0  0  0  0  0
   -1.3931   -1.5751   -1.2883 C   0  0  0  0  0  0  0  0  0  0  0  0
   -2.4655   -1.8169   -2.1527 C   0  0  0  0  0  0  0  0  0  0  0  0
   -2.2435   -2.4965   -3.3500 C   0  0  0  0  0  0  0  0  0  0  0  0
   -0.9564   -2.9230   -3.6811 C   0  0  0  0  0  0  0  0  0  0  0  0
    0.1127   -2.6766   -2.8147 C   0  0  0  0  0  0  0  0  0  0  0  0
   -0.1042   -2.0178   -1.6020 C   0  0  0  0  0  0  0  0  0  0  0  0
    1.7967   -2.2407   -0.8088 H   0  0  0  0  0  0  0  0  0  0  0  0
    1.4349   -0.6511    2.2205 H   0  0  0  0  0  0  0  0  0  0  0  0
    3.8403   -1.2468    2.8798 H   0  0  0  0  0  0  0  0  0  0  0  0
    6.1370   -0.4806    2.4388 H   0  0  0  0  0  0  0  0  0  0  0  0
    6.5361    2.4529   -0.8784 H   0  0  0  0  0  0  0  0  0  0  0  0
    8.2226    2.1939   -0.6284 H   0  0  0  0  0  0  0  0  0  0  0  0
    4.8747    1.0552   -1.3913 H   0  0  0  0  0  0  0  0  0  0  0  0
    2.5923    0.3337   -0.9372 H   0  0  0  0  0  0  0  0  0  0  0  0
   -2.5827   -0.3547    2.4287 H   0  0  0  0  0  0  0  0  0  0  0  0
   -2.1504    1.1719    1.6473 H   0  0  0  0  0  0  0  0  0  0  0  0
   -4.9613   -0.0452    1.7794 H   0  0  0  0  0  0  0  0  0  0  0  0
   -3.8963    2.5343    0.5296 H   0  0  0  0  0  0  0  0  0  0  0  0
   -5.0633    1.3919   -0.1675 H   0  0  0  0  0  0  0  0  0  0  0  0
   -6.7195    1.9825    1.5068 H   0  0  0  0  0  0  0  0  0  0  0  0
   -6.0177    3.5646    1.1166 H   0  0  0  0  0  0  0  0  0  0  0  0
   -6.0049    2.6349    3.6878 H   0  0  0  0  0  0  0  0  0  0  0  0
   -4.5797    3.4888    3.0573 H   0  0  0  0  0  0  0  0  0  0  0  0
   -3.4658   -1.4773   -1.8956 H   0  0  0  0  0  0  0  0  0  0  0  0
   -3.0729   -2.6880   -4.0267 H   0  0  0  0  0  0  0  0  0  0  0  0
   -0.7843   -3.4437   -4.6205 H   0  0  0  0  0  0  0  0  0  0  0  0
    1.1105   -3.0011   -3.0974 H   0  0  0  0  0  0  0  0  0  0  0  0
  1  2  1  0
  2  3  1  0
  3  4  1  0
  4  5  2  0
  5  6  1  0
  6  7  2  0
  7  8  1  0
  8  9  1  0
  8 10  2  0
  7 11  1  0
 11 12  2  0
  2 13  2  0
 13 14  1  0
 14 15  2  3
 15 16  1  0
 16 17  1  0
 17 18  1  0
 18 19  1  0
 19 20  1  0
 20 21  1  0
 14 22  1  0
 22 23  2  0
 23 24  1  0
 24 25  2  0
 25 26  1  0
 26 27  2  0
 27  1  1  0
 12  4  1  0
 21 17  1  0
 27 22  1  0
  1 28  1  0
  3 29  1  0
  5 30  1  0
  6 31  1  0
  9 32  1  0
  9 33  1  0
 11 34  1  0
 12 35  1  0
 16 36  1  0
 16 37  1  0
 17 38  1  0
 18 39  1  0
 18 40  1  0
 19 41  1  0
 19 42  1  0
 20 43  1  0
 20 44  1  0
 23 45  1  0
 24 46  1  0
 25 47  1  0
 26 48  1  0
M  END
>  <ScrubInfo>  (5) 
{"isomerGroup": 0, "isomerId": 4, "confId": 0, "nr_conformers:": 1, "nr_isomers:": 6}

$$$$
_i5
     RDKit          3D

 48 51  0  0  0  0  0  0  0  0999 V2000
    1.3433   -0.8385   -0.1799 N   0  0  0  0  0  0  0  0  0  0  0  0
    1.2259    0.4753    0.1942 C   0  0  0  0  0  0  0  0  0  0  0  0
    2.1563    1.2411    0.6871 N   0  0  0  0  0  0  0  0  0  0  0  0
    3.4395    0.7174    0.8750 C   0  0  0  0  0  0  0  0  0  0  0  0
    4.4194    0.9009   -0.1039 C   0  0  0  0  0  0  0  0  0  0  0  0
    5.7069    0.3850    0.0732 C   0  0  0  0  0  0  0  0  0  0  0  0
    6.0242   -0.3104    1.2464 C   0  0  0  0  0  0  0  0  0  0  0  0
    7.3745   -0.8860    1.4795 C   0  0  0  0  0  0  0  0  0  0  0  0
    8.4272   -0.3016    0.8312 N   0  0  0  0  0  0  0  0  0  0  0  0
    7.5485   -1.8259    2.2441 O   0  0  0  0  0  0  0  0  0  0  0  0
    5.0438   -0.4947    2.2291 C   0  0  0  0  0  0  0  0  0  0  0  0
    3.7611    0.0286    2.0470 C   0  0  0  0  0  0  0  0  0  0  0  0
   -0.0275    0.9775    0.0141 N   0  0  0  0  0  0  0  0  0  0  0  0
   -1.1762    0.3708   -0.4252 C   0  0  0  0  0  0  0  0  0  0  0  0
   -2.2415    1.0956   -0.3391 N   0  0  0  0  0  0  0  0  0  0  0  0
   -3.6014    0.6804   -0.6317 C   0  0  0  0  0  0  0  0  0  0  0  0
   -4.5766    1.7395   -0.0957 C   0  0  0  0  0  0  0  0  0  0  0  0
   -5.9725    1.6050   -0.6847 C   0  0  0  0  0  0  0  0  0  0  0  0
   -6.8126    2.2790    0.3704 C   0  0  0  0  0  0  0  0  0  0  0  0
   -6.1322    1.8322    1.6465 C   0  0  0  0  0  0  0  0  0  0  0  0
   -4.7518    1.6069    1.3315 O   0  0  0  0  0  0  0  0  0  0  0  0
   -0.9979   -1.0402   -0.9172 C   0  0  0  0  0  0  0  0  0  0  0  0
   -1.9787   -1.8065   -1.5544 C   0  0  0  0  0  0  0  0  0  0  0  0
   -1.7049   -3.1149   -1.9673 C   0  0  0  0  0  0  0  0  0  0  0  0
   -0.4454   -3.6672   -1.7619 C   0  0  0  0  0  0  0  0  0  0  0  0
    0.5526   -2.9069   -1.1569 C   0  0  0  0  0  0  0  0  0  0  0  0
    0.2948   -1.5918   -0.7399 C   0  0  0  0  0  0  0  0  0  0  0  0
    2.2390   -1.2893   -0.0675 H   0  0  0  0  0  0  0  0  0  0  0  0
    4.1714    1.4467   -1.0111 H   0  0  0  0  0  0  0  0  0  0  0  0
    6.4378    0.5170   -0.7189 H   0  0  0  0  0  0  0  0  0  0  0  0
    9.3453   -0.6210    1.1149 H   0  0  0  0  0  0  0  0  0  0  0  0
    8.3637    0.6321    0.4513 H   0  0  0  0  0  0  0  0  0  0  0  0
    5.2793   -1.0365    3.1432 H   0  0  0  0  0  0  0  0  0  0  0  0
    3.0076   -0.0998    2.8202 H   0  0  0  0  0  0  0  0  0  0  0  0
   -0.1590    1.9223    0.3483 H   0  0  0  0  0  0  0  0  0  0  0  0
   -3.7289    0.6054   -1.7166 H   0  0  0  0  0  0  0  0  0  0  0  0
   -3.8274   -0.2741   -0.1451 H   0  0  0  0  0  0  0  0  0  0  0  0
   -4.1884    2.7494   -0.2805 H   0  0  0  0  0  0  0  0  0  0  0  0
   -6.2625    0.5504   -0.7684 H   0  0  0  0  0  0  0  0  0  0  0  0
   -6.0634    2.0669   -1.6716 H   0  0  0  0  0  0  0  0  0  0  0  0
   -6.7367    3.3680    0.2673 H   0  0  0  0  0  0  0  0  0  0  0  0
   -7.8704    2.0059    0.3326 H   0  0  0  0  0  0  0  0  0  0  0  0
   -6.2121    2.5746    2.4456 H   0  0  0  0  0  0  0  0  0  0  0  0
   -6.5493    0.8861    2.0071 H   0  0  0  0  0  0  0  0  0  0  0  0
   -2.9656   -1.4230   -1.7669 H   0  0  0  0  0  0  0  0  0  0  0  0
   -2.4804   -3.7010   -2.4558 H   0  0  0  0  0  0  0  0  0  0  0  0
   -0.2365   -4.6845   -2.0839 H   0  0  0  0  0  0  0  0  0  0  0  0
    1.5378   -3.3460   -1.0204 H   0  0  0  0  0  0  0  0  0  0  0  0
  1  2  1  0
  2  3  2  3
  3  4  1  0
  4  5  2  0
  5  6  1  0
  6  7  2  0
  7  8  1  0
  8  9  1  0
  8 10  2  0
  7 11  1  0
 11 12  2  0
  2 13  1  0
 13 14  1  0
 14 15  2  3
 15 16  1  0
 16 17  1  0
 17 18  1  0
 18 19  1  0
 19 20  1  0
 20 21  1  0
 14 22  1  0
 22 23  2  0
 23 24  1  0
 24 25  2  0
 25 26  1  0
 26 27  2  0
 27  1  1  0
 12  4  1  0
 21 17  1  0
 27 22  1  0
  1 28  1  0
  5 29  1  0
  6 30  1  0
  9 31  1  0
  9 32  1  0
 11 33  1  0
 12 34  1  0
 13 35  1  0
 16 36  1  0
 16 37  1  0
 17 38  1  0
 18 39  1  0
 18 40  1  0
 19 41  1  0
 19 42  1  0
 20 43  1  0
 20 44  1  0
 23 45  1  0
 24 46  1  0
 25 47  1  0
 26 48  1  0
M  END
>  <ScrubInfo>  (6) 
{"isomerGroup": 0, "isomerId": 5, "confId": 0, "nr_conformers:": 1, "nr_isomers:": 6}

$$$$
