REMARK SMILES NC(=O)c1ccc(Nc2nc(NC[C@@H]3CCCO3)c3ccccc3n2)cc1
REMARK SMILES IDX 9 1 10 2 11 3 19 4 20 5 21 6 22 7 23 8 24 9 25 10 8 11 7 13
REMARK SMILES IDX 4 14 5 15 27 16 6 17 26 18 2 19 1 20 3 23 12 24 13 26 14 27
REMARK SMILES IDX 15 28 18 29 16 30 17 31
REMARK H PARENT 8 12 1 21 1 22 12 25
ROOT
ATOM      1  C   UNL     1       0.888  -0.140  -0.035  1.00  0.00     0.229 A 
ATOM      2  N   UNL     1      -0.354   0.331  -0.212  1.00  0.00    -0.195 NA
ATOM      3  C   UNL     1      -1.381  -0.534  -0.144  1.00  0.00     0.139 A 
ATOM      4  C   UNL     1      -1.187  -1.894   0.143  1.00  0.00     0.043 A 
ATOM      5  C   UNL     1      -2.218  -2.860   0.281  1.00  0.00     0.014 A 
ATOM      6  C   UNL     1      -1.917  -4.192   0.558  1.00  0.00     0.001 A 
ATOM      7  C   UNL     1      -0.591  -4.572   0.703  1.00  0.00     0.002 A 
ATOM      8  C   UNL     1       0.421  -3.617   0.577  1.00  0.00     0.029 A 
ATOM      9  C   UNL     1       0.145  -2.282   0.303  1.00  0.00     0.078 A 
ATOM     10  N   UNL     1       1.163  -1.424   0.209  1.00  0.00    -0.213 NA
ENDROOT
BRANCH   1  11
ATOM     11  N   UNL     1       1.891   0.821  -0.137  1.00  0.00    -0.324 N 
ATOM     12  H   UNL     1       1.460   1.716  -0.314  1.00  0.00     0.170 HD
BRANCH  11  13
ATOM     13  C   UNL     1       3.281   0.798   0.013  1.00  0.00     0.041 A 
ATOM     14  C   UNL     1       6.106   0.882   0.241  1.00  0.00     0.039 A 
ATOM     15  C   UNL     1       5.393   2.037  -0.086  1.00  0.00     0.016 A 
ATOM     16  C   UNL     1       5.408  -0.306   0.469  1.00  0.00     0.016 A 
ATOM     17  C   UNL     1       3.997   1.989  -0.201  1.00  0.00     0.027 A 
ATOM     18  C   UNL     1       4.013  -0.345   0.348  1.00  0.00     0.027 A 
BRANCH  14  19
ATOM     19  C   UNL     1       7.586   0.874   0.378  1.00  0.00     0.248 C 
ATOM     20  N   UNL     1       8.285   1.848  -0.282  1.00  0.00    -0.366 N 
ATOM     21  H   UNL     1       7.879   2.366  -1.047  1.00  0.00     0.159 HD
ATOM     22  H   UNL     1       9.291   1.734  -0.284  1.00  0.00     0.159 HD
ATOM     23  O   UNL     1       8.172   0.013   1.022  1.00  0.00    -0.270 OA
ENDBRANCH  14  19
ENDBRANCH  11  13
ENDBRANCH   1  11
BRANCH   3  24
ATOM     24  N   UNL     1      -2.694  -0.047  -0.323  1.00  0.00    -0.367 N 
ATOM     25  H   UNL     1      -3.167  -0.615  -1.026  1.00  0.00     0.162 HD
BRANCH  24  26
ATOM     26  C   UNL     1      -2.791   1.366  -0.706  1.00  0.00     0.146 C 
BRANCH  26  27
ATOM     27  C   UNL     1      -4.258   1.748  -0.944  1.00  0.00     0.137 C 
ATOM     28  C   UNL     1      -5.144   1.677   0.291  1.00  0.00     0.036 C 
ATOM     29  O   UNL     1      -4.860   0.872  -1.926  1.00  0.00    -0.376 OA
ATOM     30  C   UNL     1      -6.505   1.476  -0.327  1.00  0.00     0.031 C 
ATOM     31  C   UNL     1      -6.190   0.555  -1.487  1.00  0.00     0.160 C 
ENDBRANCH  26  27
ENDBRANCH  24  26
ENDBRANCH   3  24
TORSDOF 6
