REMARK SMILES COCCNc1nc(Nc2ccccc2Cl)c2cnn(C)c2n1
REMARK SMILES IDX 5 1 4 3 3 4 2 5 1 6 6 7 7 8 23 9 8 10 22 11 17 12 20 13
REMARK SMILES IDX 18 14 19 15 21 16 9 17 10 19 11 20 15 21 12 22 14 23 13 24
REMARK SMILES IDX 16 25
REMARK H PARENT 5 2 9 18
ROOT
ATOM      1  N   UNL     1      -1.772   0.530   1.516  1.00  0.00    -0.352 N 
ATOM      2  H   UNL     1      -1.188   1.342   1.681  1.00  0.00     0.163 HD
ENDROOT
BRANCH   1   3
ATOM      3  C   UNL     1      -3.115   0.805   1.027  1.00  0.00     0.144 C 
BRANCH   3   4
ATOM      4  C   UNL     1      -3.123   1.559  -0.309  1.00  0.00     0.181 C 
BRANCH   4   5
ATOM      5  O   UNL     1      -4.461   1.961  -0.616  1.00  0.00    -0.383 OA
ATOM      6  C   UNL     1      -4.526   2.651  -1.857  1.00  0.00     0.194 C 
ENDBRANCH   4   5
ENDBRANCH   3   4
ENDBRANCH   1   3
BRANCH   1   7
ATOM      7  C   UNL     1      -1.014  -0.365   0.776  1.00  0.00     0.226 A 
ATOM      8  N   UNL     1       0.302  -0.090   0.748  1.00  0.00    -0.195 NA
ATOM      9  N   UNL     1      -1.612  -1.384   0.148  1.00  0.00    -0.193 NA
ATOM     10  C   UNL     1       1.167  -0.880   0.058  1.00  0.00     0.147 A 
ATOM     11  C   UNL     1      -0.750  -2.154  -0.528  1.00  0.00     0.165 A 
ATOM     12  C   UNL     1       0.615  -1.974  -0.623  1.00  0.00     0.082 A 
ATOM     13  N   UNL     1      -1.036  -3.272  -1.263  1.00  0.00    -0.250 N 
ATOM     14  C   UNL     1       1.052  -3.036  -1.442  1.00  0.00     0.149 A 
ATOM     15  N   UNL     1       0.052  -3.830  -1.843  1.00  0.00    -0.179 NA
ATOM     16  C   UNL     1      -2.332  -3.872  -1.460  1.00  0.00     0.176 C 
BRANCH  10  17
ATOM     17  N   UNL     1       2.540  -0.610   0.005  1.00  0.00    -0.338 N 
ATOM     18  H   UNL     1       3.064  -1.228  -0.604  1.00  0.00     0.168 HD
BRANCH  17  19
ATOM     19  C   UNL     1       3.358   0.359   0.623  1.00  0.00     0.058 A 
ATOM     20  C   UNL     1       2.893   1.253   1.594  1.00  0.00     0.027 A 
ATOM     21  C   UNL     1       4.716   0.464   0.247  1.00  0.00     0.064 A 
ATOM     22  C   UNL     1       3.740   2.208   2.169  1.00  0.00     0.002 A 
ATOM     23  C   UNL     1       5.566   1.416   0.818  1.00  0.00     0.023 A 
ATOM     24  C   UNL     1       5.074   2.291   1.782  1.00  0.00     0.002 A 
ATOM     25  Cl  UNL     1       5.379  -0.603  -0.949  1.00  0.00    -0.082 Cl
ENDBRANCH  17  19
ENDBRANCH  10  17
ENDBRANCH   1   7
TORSDOF 6
