_i0
     RDKit          3D

 40 42  0  0  0  0  0  0  0  0999 V2000
   -4.5262    2.6515   -1.8567 C   0  0  0  0  0  0  0  0  0  0  0  0
   -4.4608    1.9606   -0.6159 O   0  0  0  0  0  0  0  0  0  0  0  0
   -3.1230    1.5587   -0.3091 C   0  0  0  0  0  0  0  0  0  0  0  0
   -3.1152    0.8052    1.0270 C   0  0  0  0  0  0  0  0  0  0  0  0
   -1.7715    0.5296    1.5163 N   0  0  0  0  0  0  0  0  0  0  0  0
   -1.0140   -0.3650    0.7765 C   0  0  0  0  0  0  0  0  0  0  0  0
    0.3021   -0.0902    0.7476 N   0  0  0  0  0  0  0  0  0  0  0  0
    1.1670   -0.8805    0.0578 C   0  0  0  0  0  0  0  0  0  0  0  0
    2.5396   -0.6101    0.0052 N   0  0  0  0  0  0  0  0  0  0  0  0
    3.3576    0.3590    0.6226 C   0  0  0  0  0  0  0  0  0  0  0  0
    2.8925    1.2530    1.5939 C   0  0  0  0  0  0  0  0  0  0  0  0
    3.7400    2.2082    2.1692 C   0  0  0  0  0  0  0  0  0  0  0  0
    5.0743    2.2909    1.7815 C   0  0  0  0  0  0  0  0  0  0  0  0
    5.5656    1.4160    0.8175 C   0  0  0  0  0  0  0  0  0  0  0  0
    4.7156    0.4635    0.2468 C   0  0  0  0  0  0  0  0  0  0  0  0
    5.3791   -0.6032   -0.9491 Cl  0  0  0  0  0  0  0  0  0  0  0  0
    0.6153   -1.9735   -0.6228 C   0  0  0  0  0  0  0  0  0  0  0  0
    1.0516   -3.0360   -1.4423 C   0  0  0  0  0  0  0  0  0  0  0  0
    0.0521   -3.8300   -1.8426 N   0  0  0  0  0  0  0  0  0  0  0  0
   -1.0364   -3.2723   -1.2626 N   0  0  0  0  0  0  0  0  0  0  0  0
   -2.3322   -3.8719   -1.4597 C   0  0  0  0  0  0  0  0  0  0  0  0
   -0.7501   -2.1541   -0.5284 C   0  0  0  0  0  0  0  0  0  0  0  0
   -1.6122   -1.3836    0.1482 N   0  0  0  0  0  0  0  0  0  0  0  0
   -5.5661    2.9365   -2.0374 H   0  0  0  0  0  0  0  0  0  0  0  0
   -4.1943    2.0038   -2.6737 H   0  0  0  0  0  0  0  0  0  0  0  0
   -3.9157    3.5590   -1.8225 H   0  0  0  0  0  0  0  0  0  0  0  0
   -2.4862    2.4489   -0.2403 H   0  0  0  0  0  0  0  0  0  0  0  0
   -2.7421    0.9201   -1.1142 H   0  0  0  0  0  0  0  0  0  0  0  0
   -3.6268    1.4204    1.7774 H   0  0  0  0  0  0  0  0  0  0  0  0
   -3.7171   -0.1097    0.9550 H   0  0  0  0  0  0  0  0  0  0  0  0
   -1.1883    1.3422    1.6812 H   0  0  0  0  0  0  0  0  0  0  0  0
    3.0644   -1.2281   -0.6037 H   0  0  0  0  0  0  0  0  0  0  0  0
    1.8634    1.2188    1.9371 H   0  0  0  0  0  0  0  0  0  0  0  0
    3.3502    2.8858    2.9254 H   0  0  0  0  0  0  0  0  0  0  0  0
    5.7285    3.0335    2.2311 H   0  0  0  0  0  0  0  0  0  0  0  0
    6.6071    1.4782    0.5142 H   0  0  0  0  0  0  0  0  0  0  0  0
    2.0576   -3.2675   -1.7674 H   0  0  0  0  0  0  0  0  0  0  0  0
   -2.2997   -4.8942   -1.0745 H   0  0  0  0  0  0  0  0  0  0  0  0
   -2.5506   -3.8736   -2.5305 H   0  0  0  0  0  0  0  0  0  0  0  0
   -3.0951   -3.2998   -0.9272 H   0  0  0  0  0  0  0  0  0  0  0  0
  1  2  1  0
  2  3  1  0
  3  4  1  0
  4  5  1  0
  5  6  1  0
  6  7  2  0
  7  8  1  0
  8  9  1  0
  9 10  1  0
 10 11  2  0
 11 12  1  0
 12 13  2  0
 13 14  1  0
 14 15  2  0
 15 16  1  0
  8 17  2  0
 17 18  1  0
 18 19  2  0
 19 20  1  0
 20 21  1  0
 20 22  1  0
 22 23  2  0
 23  6  1  0
 15 10  1  0
 22 17  1  0
  1 24  1  0
  1 25  1  0
  1 26  1  0
  3 27  1  0
  3 28  1  0
  4 29  1  0
  4 30  1  0
  5 31  1  0
  9 32  1  0
 11 33  1  0
 12 34  1  0
 13 35  1  0
 14 36  1  0
 18 37  1  0
 21 38  1  0
 21 39  1  0
 21 40  1  0
M  END
>  <ScrubInfo>  (1) 
{"isomerGroup": 0, "isomerId": 0, "confId": 0, "nr_conformers:": 1, "nr_isomers:": 9}

$$$$
_i1
     RDKit          3D

 40 42  0  0  0  0  0  0  0  0999 V2000
    0.1762   -0.3717   -0.0941 N   0  0  0  0  0  0  0  0  0  0  0  0
    1.3331   -0.3435    0.6610 C   0  0  0  0  0  0  0  0  0  0  0  0
    2.5984   -0.2919    0.1117 N   0  0  0  0  0  0  0  0  0  0  0  0
    3.0309    0.1517   -1.1571 C   0  0  0  0  0  0  0  0  0  0  0  0
    2.2670    1.0106   -1.9598 C   0  0  0  0  0  0  0  0  0  0  0  0
    2.7053    1.3918   -3.2329 C   0  0  0  0  0  0  0  0  0  0  0  0
    3.9166    0.9185   -3.7302 C   0  0  0  0  0  0  0  0  0  0  0  0
    4.6977    0.0680   -2.9522 C   0  0  0  0  0  0  0  0  0  0  0  0
    4.2581   -0.3101   -1.6803 C   0  0  0  0  0  0  0  0  0  0  0  0
    5.2688   -1.3653   -0.7491 Cl  0  0  0  0  0  0  0  0  0  0  0  0
    1.1358   -0.4128    1.9838 C   0  0  0  0  0  0  0  0  0  0  0  0
    1.9471   -0.3912    3.2061 C   0  0  0  0  0  0  0  0  0  0  0  0
    1.2298   -0.4348    4.3001 N   0  0  0  0  0  0  0  0  0  0  0  0
   -0.1026   -0.5368    3.8686 N   0  0  0  0  0  0  0  0  0  0  0  0
   -1.1657   -0.3069    4.8166 C   0  0  0  0  0  0  0  0  0  0  0  0
   -0.2525   -0.4865    2.4923 C   0  0  0  0  0  0  0  0  0  0  0  0
   -1.3190   -0.4949    1.7672 N   0  0  0  0  0  0  0  0  0  0  0  0
   -1.0948   -0.4684    0.4090 C   0  0  0  0  0  0  0  0  0  0  0  0
   -2.0828   -0.5489   -0.4210 N   0  0  0  0  0  0  0  0  0  0  0  0
   -3.4291   -0.6514    0.1653 C   0  0  0  0  0  0  0  0  0  0  0  0
   -4.4754   -0.7164   -0.9547 C   0  0  0  0  0  0  0  0  0  0  0  0
   -4.8935    0.5696   -1.4268 O   0  0  0  0  0  0  0  0  0  0  0  0
   -3.8785    1.2610   -2.1406 C   0  0  0  0  0  0  0  0  0  0  0  0
    0.2715   -0.5028   -1.0897 H   0  0  0  0  0  0  0  0  0  0  0  0
    3.3653   -0.5978    0.7062 H   0  0  0  0  0  0  0  0  0  0  0  0
    1.3351    1.4348   -1.5945 H   0  0  0  0  0  0  0  0  0  0  0  0
    2.0994    2.0676   -3.8330 H   0  0  0  0  0  0  0  0  0  0  0  0
    4.2543    1.2171   -4.7198 H   0  0  0  0  0  0  0  0  0  0  0  0
    5.6451   -0.2976   -3.3396 H   0  0  0  0  0  0  0  0  0  0  0  0
    3.0411   -0.3188    3.1614 H   0  0  0  0  0  0  0  0  0  0  0  0
   -2.0843   -0.8134    4.5037 H   0  0  0  0  0  0  0  0  0  0  0  0
   -0.8936   -0.6907    5.8053 H   0  0  0  0  0  0  0  0  0  0  0  0
   -1.3712    0.7643    4.9054 H   0  0  0  0  0  0  0  0  0  0  0  0
   -3.6385    0.2097    0.8108 H   0  0  0  0  0  0  0  0  0  0  0  0
   -3.4968   -1.5769    0.7495 H   0  0  0  0  0  0  0  0  0  0  0  0
   -5.3785   -1.1882   -0.5522 H   0  0  0  0  0  0  0  0  0  0  0  0
   -4.1374   -1.3309   -1.7976 H   0  0  0  0  0  0  0  0  0  0  0  0
   -3.1162    1.6416   -1.4560 H   0  0  0  0  0  0  0  0  0  0  0  0
   -4.3393    2.1198   -2.6370 H   0  0  0  0  0  0  0  0  0  0  0  0
   -3.4270    0.6222   -2.9057 H   0  0  0  0  0  0  0  0  0  0  0  0
  1  2  1  0
  2  3  1  0
  3  4  1  0
  4  5  2  0
  5  6  1  0
  6  7  2  0
  7  8  1  0
  8  9  2  0
  9 10  1  0
  2 11  2  0
 11 12  1  0
 12 13  2  0
 13 14  1  0
 14 15  1  0
 14 16  1  0
 16 17  2  0
 17 18  1  0
 18 19  2  3
 19 20  1  0
 20 21  1  0
 21 22  1  0
 22 23  1  0
 18  1  1  0
  9  4  1  0
 16 11  1  0
  1 24  1  0
  3 25  1  0
  5 26  1  0
  6 27  1  0
  7 28  1  0
  8 29  1  0
 12 30  1  0
 15 31  1  0
 15 32  1  0
 15 33  1  0
 20 34  1  0
 20 35  1  0
 21 36  1  0
 21 37  1  0
 23 38  1  0
 23 39  1  0
 23 40  1  0
M  END
>  <ScrubInfo>  (2) 
{"isomerGroup": 0, "isomerId": 1, "confId": 0, "nr_conformers:": 1, "nr_isomers:": 9}

$$$$
_i2
     RDKit          3D

 40 42  0  0  0  0  0  0  0  0999 V2000
    0.2822    0.7055    0.4569 N   0  0  0  0  0  0  0  0  0  0  0  0
    1.3095   -0.1947    0.3292 C   0  0  0  0  0  0  0  0  0  0  0  0
    2.5399    0.2387    0.7327 N   0  0  0  0  0  0  0  0  0  0  0  0
    3.1061    1.5079    0.2799 C   0  0  0  0  0  0  0  0  0  0  0  0
    4.5498    1.6354    0.7770 C   0  0  0  0  0  0  0  0  0  0  0  0
    5.3327    0.5828    0.2024 O   0  0  0  0  0  0  0  0  0  0  0  0
    6.6816    0.6309    0.6496 C   0  0  0  0  0  0  0  0  0  0  0  0
    1.1639   -1.4109   -0.1315 N   0  0  0  0  0  0  0  0  0  0  0  0
   -0.1291   -1.6610   -0.4836 C   0  0  0  0  0  0  0  0  0  0  0  0
   -1.2298   -0.8223   -0.3862 C   0  0  0  0  0  0  0  0  0  0  0  0
   -2.2913   -1.5833   -0.9066 C   0  0  0  0  0  0  0  0  0  0  0  0
   -1.9107   -2.8043   -1.3039 N   0  0  0  0  0  0  0  0  0  0  0  0
   -0.5880   -2.8299   -1.0220 N   0  0  0  0  0  0  0  0  0  0  0  0
    0.1753   -4.0167   -1.3152 C   0  0  0  0  0  0  0  0  0  0  0  0
   -1.0471    0.5065    0.1657 C   0  0  0  0  0  0  0  0  0  0  0  0
   -1.9357    1.4265    0.3906 N   0  0  0  0  0  0  0  0  0  0  0  0
   -3.2996    1.2187    0.1408 C   0  0  0  0  0  0  0  0  0  0  0  0
   -3.8319    1.6494   -1.0810 C   0  0  0  0  0  0  0  0  0  0  0  0
   -5.1907    1.4912   -1.3636 C   0  0  0  0  0  0  0  0  0  0  0  0
   -6.0371    0.9141   -0.4185 C   0  0  0  0  0  0  0  0  0  0  0  0
   -5.5278    0.5023    0.8134 C   0  0  0  0  0  0  0  0  0  0  0  0
   -4.1679    0.6610    1.0960 C   0  0  0  0  0  0  0  0  0  0  0  0
   -3.5885    0.1437    2.6404 Cl  0  0  0  0  0  0  0  0  0  0  0  0
    0.4661    1.5438    0.9814 H   0  0  0  0  0  0  0  0  0  0  0  0
    3.2207   -0.5071    0.5698 H   0  0  0  0  0  0  0  0  0  0  0  0
    3.0904    1.5343   -0.8157 H   0  0  0  0  0  0  0  0  0  0  0  0
    2.5168    2.3474    0.6620 H   0  0  0  0  0  0  0  0  0  0  0  0
    4.9610    2.6030    0.4690 H   0  0  0  0  0  0  0  0  0  0  0  0
    4.5828    1.5602    1.8702 H   0  0  0  0  0  0  0  0  0  0  0  0
    6.7294    0.5033    1.7352 H   0  0  0  0  0  0  0  0  0  0  0  0
    7.1473    1.5777    0.3598 H   0  0  0  0  0  0  0  0  0  0  0  0
    7.2303   -0.1881    0.1769 H   0  0  0  0  0  0  0  0  0  0  0  0
   -3.3321   -1.3191   -1.0275 H   0  0  0  0  0  0  0  0  0  0  0  0
   -0.3472   -4.8786   -0.8920 H   0  0  0  0  0  0  0  0  0  0  0  0
    0.2525   -4.1130   -2.4010 H   0  0  0  0  0  0  0  0  0  0  0  0
    1.1715   -3.9414   -0.8741 H   0  0  0  0  0  0  0  0  0  0  0  0
   -3.1786    2.1103   -1.8178 H   0  0  0  0  0  0  0  0  0  0  0  0
   -5.5876    1.8229   -2.3202 H   0  0  0  0  0  0  0  0  0  0  0  0
   -7.0952    0.7914   -0.6378 H   0  0  0  0  0  0  0  0  0  0  0  0
   -6.1938    0.0614    1.5506 H   0  0  0  0  0  0  0  0  0  0  0  0
  1  2  1  0
  2  3  1  0
  3  4  1  0
  4  5  1  0
  5  6  1  0
  6  7  1  0
  2  8  2  0
  8  9  1  0
  9 10  2  0
 10 11  1  0
 11 12  2  0
 12 13  1  0
 13 14  1  0
 10 15  1  0
 15 16  2  3
 16 17  1  0
 17 18  2  0
 18 19  1  0
 19 20  2  0
 20 21  1  0
 21 22  2  0
 22 23  1  0
 15  1  1  0
 22 17  1  0
 13  9  1  0
  1 24  1  0
  3 25  1  0
  4 26  1  0
  4 27  1  0
  5 28  1  0
  5 29  1  0
  7 30  1  0
  7 31  1  0
  7 32  1  0
 11 33  1  0
 14 34  1  0
 14 35  1  0
 14 36  1  0
 18 37  1  0
 19 38  1  0
 20 39  1  0
 21 40  1  0
M  END
>  <ScrubInfo>  (3) 
{"isomerGroup": 0, "isomerId": 2, "confId": 0, "nr_conformers:": 1, "nr_isomers:": 9}

$$$$
_i3
     RDKit          3D

 40 42  0  0  0  0  0  0  0  0999 V2000
    1.0728   -1.1736   -0.3467 N   0  0  0  0  0  0  0  0  0  0  0  0
    1.1251   -0.0225    0.4252 C   0  0  0  0  0  0  0  0  0  0  0  0
    2.1753    0.6761    0.6776 N   0  0  0  0  0  0  0  0  0  0  0  0
    3.4541    0.2563    0.1190 C   0  0  0  0  0  0  0  0  0  0  0  0
    4.5411    1.2391    0.5480 C   0  0  0  0  0  0  0  0  0  0  0  0
    5.7886    0.8160   -0.0098 O   0  0  0  0  0  0  0  0  0  0  0  0
    6.8428    1.6958    0.3595 C   0  0  0  0  0  0  0  0  0  0  0  0
   -0.0169    0.4957    1.0203 N   0  0  0  0  0  0  0  0  0  0  0  0
   -1.1643   -0.0914    0.8374 C   0  0  0  0  0  0  0  0  0  0  0  0
   -2.3313    0.3381    1.4093 N   0  0  0  0  0  0  0  0  0  0  0  0
   -3.4137    0.9370    0.6981 C   0  0  0  0  0  0  0  0  0  0  0  0
   -3.4660    0.9927   -0.7030 C   0  0  0  0  0  0  0  0  0  0  0  0
   -4.5726    1.5400   -1.3618 C   0  0  0  0  0  0  0  0  0  0  0  0
   -5.6516    2.0343   -0.6339 C   0  0  0  0  0  0  0  0  0  0  0  0
   -5.6274    1.9842    0.7574 C   0  0  0  0  0  0  0  0  0  0  0  0
   -4.5218    1.4376    1.4153 C   0  0  0  0  0  0  0  0  0  0  0  0
   -4.5427    1.4046    3.1463 Cl  0  0  0  0  0  0  0  0  0  0  0  0
   -1.2532   -1.3131    0.0738 C   0  0  0  0  0  0  0  0  0  0  0  0
   -2.2364   -2.2513   -0.2731 C   0  0  0  0  0  0  0  0  0  0  0  0
   -1.7460   -3.2430   -1.0339 N   0  0  0  0  0  0  0  0  0  0  0  0
   -0.4284   -2.9429   -1.1504 N   0  0  0  0  0  0  0  0  0  0  0  0
    0.4271   -3.8251   -1.9024 C   0  0  0  0  0  0  0  0  0  0  0  0
   -0.1083   -1.7973   -0.4939 C   0  0  0  0  0  0  0  0  0  0  0  0
    1.9404   -1.5141   -0.7334 H   0  0  0  0  0  0  0  0  0  0  0  0
    3.4155    0.2265   -0.9771 H   0  0  0  0  0  0  0  0  0  0  0  0
    3.7264   -0.7477    0.4674 H   0  0  0  0  0  0  0  0  0  0  0  0
    4.3002    2.2472    0.1901 H   0  0  0  0  0  0  0  0  0  0  0  0
    4.6155    1.2646    1.6417 H   0  0  0  0  0  0  0  0  0  0  0  0
    6.6480    2.7056   -0.0142 H   0  0  0  0  0  0  0  0  0  0  0  0
    6.9651    1.7124    1.4468 H   0  0  0  0  0  0  0  0  0  0  0  0
    7.7696    1.3298   -0.0904 H   0  0  0  0  0  0  0  0  0  0  0  0
   -2.1307    0.9422    2.2065 H   0  0  0  0  0  0  0  0  0  0  0  0
   -2.6433    0.6310   -1.3143 H   0  0  0  0  0  0  0  0  0  0  0  0
   -4.5879    1.5792   -2.4491 H   0  0  0  0  0  0  0  0  0  0  0  0
   -6.5095    2.4583   -1.1500 H   0  0  0  0  0  0  0  0  0  0  0  0
   -6.4707    2.3699    1.3244 H   0  0  0  0  0  0  0  0  0  0  0  0
   -3.2870   -2.2600   -0.0122 H   0  0  0  0  0  0  0  0  0  0  0  0
    0.4498   -4.7941   -1.3975 H   0  0  0  0  0  0  0  0  0  0  0  0
    1.4356   -3.4100   -1.9561 H   0  0  0  0  0  0  0  0  0  0  0  0
    0.0168   -3.9282   -2.9102 H   0  0  0  0  0  0  0  0  0  0  0  0
  1  2  1  0
  2  3  2  3
  3  4  1  0
  4  5  1  0
  5  6  1  0
  6  7  1  0
  2  8  1  0
  8  9  2  0
  9 10  1  0
 10 11  1  0
 11 12  2  0
 12 13  1  0
 13 14  2  0
 14 15  1  0
 15 16  2  0
 16 17  1  0
  9 18  1  0
 18 19  1  0
 19 20  2  0
 20 21  1  0
 21 22  1  0
 21 23  1  0
 23  1  1  0
 16 11  1  0
 23 18  2  0
  1 24  1  0
  4 25  1  0
  4 26  1  0
  5 27  1  0
  5 28  1  0
  7 29  1  0
  7 30  1  0
  7 31  1  0
 10 32  1  0
 12 33  1  0
 13 34  1  0
 14 35  1  0
 15 36  1  0
 19 37  1  0
 22 38  1  0
 22 39  1  0
 22 40  1  0
M  END
>  <ScrubInfo>  (4) 
{"isomerGroup": 0, "isomerId": 3, "confId": 0, "nr_conformers:": 1, "nr_isomers:": 9}

$$$$
_i4
     RDKit          3D

 40 42  0  0  0  0  0  0  0  0999 V2000
   -1.7322   -3.0333    0.8612 N   0  0  0  0  0  0  0  0  0  0  0  0
   -2.0361   -1.7630    0.3812 C   0  0  0  0  0  0  0  0  0  0  0  0
   -1.0193   -0.8934    0.4851 C   0  0  0  0  0  0  0  0  0  0  0  0
   -0.7105    0.4915    0.1535 C   0  0  0  0  0  0  0  0  0  0  0  0
   -1.4523    1.4265   -0.3391 N   0  0  0  0  0  0  0  0  0  0  0  0
   -2.8074    1.2022   -0.6198 C   0  0  0  0  0  0  0  0  0  0  0  0
   -3.1729    0.9209   -1.9424 C   0  0  0  0  0  0  0  0  0  0  0  0
   -4.5104    0.7155   -2.2882 C   0  0  0  0  0  0  0  0  0  0  0  0
   -5.5032    0.8040   -1.3145 C   0  0  0  0  0  0  0  0  0  0  0  0
   -5.1598    1.1045    0.0039 C   0  0  0  0  0  0  0  0  0  0  0  0
   -3.8202    1.3099    0.3496 C   0  0  0  0  0  0  0  0  0  0  0  0
   -3.4538    1.6707    1.9998 Cl  0  0  0  0  0  0  0  0  0  0  0  0
    0.5906    0.8405    0.3976 N   0  0  0  0  0  0  0  0  0  0  0  0
    1.4552    0.0448    0.9451 C   0  0  0  0  0  0  0  0  0  0  0  0
    2.7353    0.4562    1.1717 N   0  0  0  0  0  0  0  0  0  0  0  0
    3.3319    1.6132    0.5345 C   0  0  0  0  0  0  0  0  0  0  0  0
    3.6260    1.3570   -0.9486 C   0  0  0  0  0  0  0  0  0  0  0  0
    4.4148    2.4012   -1.5270 O   0  0  0  0  0  0  0  0  0  0  0  0
    5.8096    2.2269   -1.3193 C   0  0  0  0  0  0  0  0  0  0  0  0
    1.2110   -1.2439    1.3347 N   0  0  0  0  0  0  0  0  0  0  0  0
    0.0256   -1.7054    1.1367 C   0  0  0  0  0  0  0  0  0  0  0  0
   -0.4766   -2.9699    1.4476 N   0  0  0  0  0  0  0  0  0  0  0  0
    0.3752   -4.1426    1.4234 C   0  0  0  0  0  0  0  0  0  0  0  0
   -2.4762   -3.4317    1.4394 H   0  0  0  0  0  0  0  0  0  0  0  0
   -3.0252   -1.5936   -0.0170 H   0  0  0  0  0  0  0  0  0  0  0  0
   -2.4026    0.8714   -2.7088 H   0  0  0  0  0  0  0  0  0  0  0  0
   -4.7754    0.4991   -3.3205 H   0  0  0  0  0  0  0  0  0  0  0  0
   -6.5457    0.6526   -1.5844 H   0  0  0  0  0  0  0  0  0  0  0  0
   -5.9392    1.1858    0.7572 H   0  0  0  0  0  0  0  0  0  0  0  0
    3.3582   -0.3013    1.4177 H   0  0  0  0  0  0  0  0  0  0  0  0
    4.2576    1.8555    1.0666 H   0  0  0  0  0  0  0  0  0  0  0  0
    2.6947    2.4991    0.6437 H   0  0  0  0  0  0  0  0  0  0  0  0
    2.6832    1.3247   -1.5056 H   0  0  0  0  0  0  0  0  0  0  0  0
    4.1141    0.3860   -1.0991 H   0  0  0  0  0  0  0  0  0  0  0  0
    6.3332    3.0588   -1.7982 H   0  0  0  0  0  0  0  0  0  0  0  0
    6.1508    1.2938   -1.7778 H   0  0  0  0  0  0  0  0  0  0  0  0
    6.0538    2.2335   -0.2538 H   0  0  0  0  0  0  0  0  0  0  0  0
   -0.1731   -5.0192    1.7836 H   0  0  0  0  0  0  0  0  0  0  0  0
    1.2439   -4.0018    2.0743 H   0  0  0  0  0  0  0  0  0  0  0  0
    0.7279   -4.3465    0.4070 H   0  0  0  0  0  0  0  0  0  0  0  0
  1  2  1  0
  2  3  2  0
  3  4  1  0
  4  5  2  3
  5  6  1  0
  6  7  2  0
  7  8  1  0
  8  9  2  0
  9 10  1  0
 10 11  2  0
 11 12  1  0
  4 13  1  0
 13 14  2  0
 14 15  1  0
 15 16  1  0
 16 17  1  0
 17 18  1  0
 18 19  1  0
 14 20  1  0
 20 21  2  0
 21 22  1  0
 22 23  1  0
 22  1  1  0
 21  3  1  0
 11  6  1  0
  1 24  1  0
  2 25  1  0
  7 26  1  0
  8 27  1  0
  9 28  1  0
 10 29  1  0
 15 30  1  0
 16 31  1  0
 16 32  1  0
 17 33  1  0
 17 34  1  0
 19 35  1  0
 19 36  1  0
 19 37  1  0
 23 38  1  0
 23 39  1  0
 23 40  1  0
M  END
>  <ScrubInfo>  (5) 
{"isomerGroup": 0, "isomerId": 4, "confId": 0, "nr_conformers:": 1, "nr_isomers:": 9}

$$$$
_i5
     RDKit          3D

 40 42  0  0  0  0  0  0  0  0999 V2000
    0.9787   -1.3724    0.1927 N   0  0  0  0  0  0  0  0  0  0  0  0
    1.2839   -0.0372    0.2780 C   0  0  0  0  0  0  0  0  0  0  0  0
    2.6173    0.2435    0.3592 N   0  0  0  0  0  0  0  0  0  0  0  0
    3.5605   -0.2378   -0.6501 C   0  0  0  0  0  0  0  0  0  0  0  0
    4.9457    0.3635   -0.3917 C   0  0  0  0  0  0  0  0  0  0  0  0
    4.8719    1.7842   -0.5485 O   0  0  0  0  0  0  0  0  0  0  0  0
    6.1203    2.4081   -0.2781 C   0  0  0  0  0  0  0  0  0  0  0  0
    0.4188    0.9352    0.3001 N   0  0  0  0  0  0  0  0  0  0  0  0
   -0.9412    0.6569    0.2340 C   0  0  0  0  0  0  0  0  0  0  0  0
   -1.7292    1.6846    0.2477 N   0  0  0  0  0  0  0  0  0  0  0  0
   -3.1237    1.5695    0.2150 C   0  0  0  0  0  0  0  0  0  0  0  0
   -3.7751    1.6827   -1.0199 C   0  0  0  0  0  0  0  0  0  0  0  0
   -5.1673    1.6093   -1.1041 C   0  0  0  0  0  0  0  0  0  0  0  0
   -5.9273    1.4384    0.0514 C   0  0  0  0  0  0  0  0  0  0  0  0
   -5.2964    1.3488    1.2926 C   0  0  0  0  0  0  0  0  0  0  0  0
   -3.9024    1.4222    1.3765 C   0  0  0  0  0  0  0  0  0  0  0  0
   -3.1735    1.3029    2.9393 Cl  0  0  0  0  0  0  0  0  0  0  0  0
   -1.3147   -0.7469    0.1526 C   0  0  0  0  0  0  0  0  0  0  0  0
   -2.4930   -1.5115    0.0741 C   0  0  0  0  0  0  0  0  0  0  0  0
   -2.2581   -2.8332    0.0359 N   0  0  0  0  0  0  0  0  0  0  0  0
   -0.9103   -2.9202    0.0955 N   0  0  0  0  0  0  0  0  0  0  0  0
   -0.2923   -4.2212    0.0792 C   0  0  0  0  0  0  0  0  0  0  0  0
   -0.3239   -1.6968    0.1464 C   0  0  0  0  0  0  0  0  0  0  0  0
    1.7189   -2.0249    0.4084 H   0  0  0  0  0  0  0  0  0  0  0  0
    2.7203    1.2593    0.4388 H   0  0  0  0  0  0  0  0  0  0  0  0
    3.6280   -1.3300   -0.6164 H   0  0  0  0  0  0  0  0  0  0  0  0
    3.2067    0.0639   -1.6427 H   0  0  0  0  0  0  0  0  0  0  0  0
    5.6633   -0.0425   -1.1132 H   0  0  0  0  0  0  0  0  0  0  0  0
    5.2804    0.1235    0.6244 H   0  0  0  0  0  0  0  0  0  0  0  0
    6.4242    2.2230    0.7566 H   0  0  0  0  0  0  0  0  0  0  0  0
    6.0048    3.4858   -0.4209 H   0  0  0  0  0  0  0  0  0  0  0  0
    6.8876    2.0435   -0.9677 H   0  0  0  0  0  0  0  0  0  0  0  0
   -3.1866    1.8343   -1.9218 H   0  0  0  0  0  0  0  0  0  0  0  0
   -5.6565    1.6946   -2.0715 H   0  0  0  0  0  0  0  0  0  0  0  0
   -7.0115    1.3850   -0.0126 H   0  0  0  0  0  0  0  0  0  0  0  0
   -5.8940    1.2262    2.1922 H   0  0  0  0  0  0  0  0  0  0  0  0
   -3.5230   -1.1852    0.0432 H   0  0  0  0  0  0  0  0  0  0  0  0
   -0.5808   -4.7492    0.9915 H   0  0  0  0  0  0  0  0  0  0  0  0
    0.7940   -4.1184    0.0368 H   0  0  0  0  0  0  0  0  0  0  0  0
   -0.6450   -4.7615   -0.8031 H   0  0  0  0  0  0  0  0  0  0  0  0
  1  2  1  0
  2  3  1  0
  3  4  1  0
  4  5  1  0
  5  6  1  0
  6  7  1  0
  2  8  2  0
  8  9  1  0
  9 10  2  3
 10 11  1  0
 11 12  2  0
 12 13  1  0
 13 14  2  0
 14 15  1  0
 15 16  2  0
 16 17  1  0
  9 18  1  0
 18 19  1  0
 19 20  2  0
 20 21  1  0
 21 22  1  0
 21 23  1  0
 23  1  1  0
 16 11  1  0
 23 18  2  0
  1 24  1  0
  3 25  1  0
  4 26  1  0
  4 27  1  0
  5 28  1  0
  5 29  1  0
  7 30  1  0
  7 31  1  0
  7 32  1  0
 12 33  1  0
 13 34  1  0
 14 35  1  0
 15 36  1  0
 19 37  1  0
 22 38  1  0
 22 39  1  0
 22 40  1  0
M  END
>  <ScrubInfo>  (6) 
{"isomerGroup": 0, "isomerId": 5, "confId": 0, "nr_conformers:": 1, "nr_isomers:": 9}

$$$$
_i6
     RDKit          3D

 40 42  0  0  0  0  0  0  0  0999 V2000
   -0.9737   -2.8803   -0.9906 N   0  0  0  0  0  0  0  0  0  0  0  0
   -1.6691   -1.6766   -0.9806 C   0  0  0  0  0  0  0  0  0  0  0  0
   -0.9269   -0.6493   -0.5459 C   0  0  0  0  0  0  0  0  0  0  0  0
   -1.0499    0.7933   -0.3474 C   0  0  0  0  0  0  0  0  0  0  0  0
   -2.2097    1.4997   -0.5601 N   0  0  0  0  0  0  0  0  0  0  0  0
   -3.4769    1.2457    0.0238 C   0  0  0  0  0  0  0  0  0  0  0  0
   -3.6698    0.2858    1.0285 C   0  0  0  0  0  0  0  0  0  0  0  0
   -4.9415    0.0406    1.5584 C   0  0  0  0  0  0  0  0  0  0  0  0
   -6.0454    0.7495    1.0927 C   0  0  0  0  0  0  0  0  0  0  0  0
   -5.8798    1.7114    0.0996 C   0  0  0  0  0  0  0  0  0  0  0  0
   -4.6087    1.9570   -0.4281 C   0  0  0  0  0  0  0  0  0  0  0  0
   -4.4620    3.1690   -1.6556 Cl  0  0  0  0  0  0  0  0  0  0  0  0
    0.0189    1.4591   -0.0065 N   0  0  0  0  0  0  0  0  0  0  0  0
    1.1997    0.7781    0.1958 C   0  0  0  0  0  0  0  0  0  0  0  0
    2.1965    1.5455    0.4616 N   0  0  0  0  0  0  0  0  0  0  0  0
    3.5064    0.9410    0.7083 C   0  0  0  0  0  0  0  0  0  0  0  0
    4.2687    0.7386   -0.6040 C   0  0  0  0  0  0  0  0  0  0  0  0
    5.5390    0.1095   -0.4055 O   0  0  0  0  0  0  0  0  0  0  0  0
    6.5306    1.0043    0.0796 C   0  0  0  0  0  0  0  0  0  0  0  0
    1.3873   -0.5828    0.1319 N   0  0  0  0  0  0  0  0  0  0  0  0
    0.3681   -1.2835   -0.2248 C   0  0  0  0  0  0  0  0  0  0  0  0
    0.2661   -2.6646   -0.3964 N   0  0  0  0  0  0  0  0  0  0  0  0
    1.4079   -3.4408   -0.8454 C   0  0  0  0  0  0  0  0  0  0  0  0
   -1.5141   -3.6732   -0.6378 H   0  0  0  0  0  0  0  0  0  0  0  0
   -2.6992   -1.6585   -1.3074 H   0  0  0  0  0  0  0  0  0  0  0  0
   -2.0426    2.5046   -0.5957 H   0  0  0  0  0  0  0  0  0  0  0  0
   -2.8327   -0.2675    1.4456 H   0  0  0  0  0  0  0  0  0  0  0  0
   -5.0657   -0.7008    2.3449 H   0  0  0  0  0  0  0  0  0  0  0  0
   -7.0320    0.5589    1.5083 H   0  0  0  0  0  0  0  0  0  0  0  0
   -6.7417    2.2684   -0.2590 H   0  0  0  0  0  0  0  0  0  0  0  0
    3.4516    0.0048    1.2779 H   0  0  0  0  0  0  0  0  0  0  0  0
    4.0657    1.6239    1.3572 H   0  0  0  0  0  0  0  0  0  0  0  0
    4.3936    1.6868   -1.1411 H   0  0  0  0  0  0  0  0  0  0  0  0
    3.6961    0.0793   -1.2650 H   0  0  0  0  0  0  0  0  0  0  0  0
    6.2866    1.3519    1.0867 H   0  0  0  0  0  0  0  0  0  0  0  0
    7.4813    0.4659    0.1261 H   0  0  0  0  0  0  0  0  0  0  0  0
    6.6487    1.8558   -0.5975 H   0  0  0  0  0  0  0  0  0  0  0  0
    1.1672   -4.5088   -0.8400 H   0  0  0  0  0  0  0  0  0  0  0  0
    2.2634   -3.2874   -0.1798 H   0  0  0  0  0  0  0  0  0  0  0  0
    1.6980   -3.1541   -1.8617 H   0  0  0  0  0  0  0  0  0  0  0  0
  1  2  1  0
  2  3  2  0
  3  4  1  0
  4  5  1  0
  5  6  1  0
  6  7  2  0
  7  8  1  0
  8  9  2  0
  9 10  1  0
 10 11  2  0
 11 12  1  0
  4 13  2  0
 13 14  1  0
 14 15  2  3
 15 16  1  0
 16 17  1  0
 17 18  1  0
 18 19  1  0
 14 20  1  0
 20 21  2  0
 21 22  1  0
 22 23  1  0
 22  1  1  0
 21  3  1  0
 11  6  1  0
  1 24  1  0
  2 25  1  0
  5 26  1  0
  7 27  1  0
  8 28  1  0
  9 29  1  0
 10 30  1  0
 16 31  1  0
 16 32  1  0
 17 33  1  0
 17 34  1  0
 19 35  1  0
 19 36  1  0
 19 37  1  0
 23 38  1  0
 23 39  1  0
 23 40  1  0
M  END
>  <ScrubInfo>  (7) 
{"isomerGroup": 0, "isomerId": 6, "confId": 0, "nr_conformers:": 1, "nr_isomers:": 9}

$$$$
_i7
     RDKit          3D

 40 42  0  0  0  0  0  0  0  0999 V2000
   -1.0496   -2.4757   -1.2692 N   0  0  0  0  0  0  0  0  0  0  0  0
   -1.8026   -1.4152   -0.7783 C   0  0  0  0  0  0  0  0  0  0  0  0
   -1.0689   -0.3406   -0.4550 C   0  0  0  0  0  0  0  0  0  0  0  0
   -1.2229    1.0139    0.1129 C   0  0  0  0  0  0  0  0  0  0  0  0
   -2.3034    1.6340    0.4861 N   0  0  0  0  0  0  0  0  0  0  0  0
   -3.5588    1.0120    0.4022 C   0  0  0  0  0  0  0  0  0  0  0  0
   -4.3482    1.2469   -0.7304 C   0  0  0  0  0  0  0  0  0  0  0  0
   -5.6165    0.6740   -0.8493 C   0  0  0  0  0  0  0  0  0  0  0  0
   -6.1167   -0.1308    0.1727 C   0  0  0  0  0  0  0  0  0  0  0  0
   -5.3522   -0.3579    1.3175 C   0  0  0  0  0  0  0  0  0  0  0  0
   -4.0827    0.2161    1.4362 C   0  0  0  0  0  0  0  0  0  0  0  0
   -3.1759   -0.0988    2.8736 Cl  0  0  0  0  0  0  0  0  0  0  0  0
   -0.0229    1.6591    0.2435 N   0  0  0  0  0  0  0  0  0  0  0  0
    1.2161    1.1846   -0.0804 C   0  0  0  0  0  0  0  0  0  0  0  0
    2.2455    1.9257    0.1687 N   0  0  0  0  0  0  0  0  0  0  0  0
    3.5726    1.4171   -0.1973 C   0  0  0  0  0  0  0  0  0  0  0  0
    4.1548    0.5479    0.9208 C   0  0  0  0  0  0  0  0  0  0  0  0
    5.4439    0.0229    0.5876 O   0  0  0  0  0  0  0  0  0  0  0  0
    6.4881    0.9737    0.7440 C   0  0  0  0  0  0  0  0  0  0  0  0
    1.3818   -0.0549   -0.6560 N   0  0  0  0  0  0  0  0  0  0  0  0
    0.3196   -0.7726   -0.8485 C   0  0  0  0  0  0  0  0  0  0  0  0
    0.2575   -2.0413   -1.4291 N   0  0  0  0  0  0  0  0  0  0  0  0
    1.3439   -2.9893   -1.2628 C   0  0  0  0  0  0  0  0  0  0  0  0
   -1.4731   -2.9403   -2.0756 H   0  0  0  0  0  0  0  0  0  0  0  0
   -2.8715   -1.5455   -0.7018 H   0  0  0  0  0  0  0  0  0  0  0  0
   -3.9698    1.8886   -1.5226 H   0  0  0  0  0  0  0  0  0  0  0  0
   -6.2170    0.8663   -1.7354 H   0  0  0  0  0  0  0  0  0  0  0  0
   -7.1069   -0.5716    0.0839 H   0  0  0  0  0  0  0  0  0  0  0  0
   -5.7515   -0.9766    2.1172 H   0  0  0  0  0  0  0  0  0  0  0  0
   -0.0420    2.5774    0.6608 H   0  0  0  0  0  0  0  0  0  0  0  0
    4.2195    2.2853   -0.3642 H   0  0  0  0  0  0  0  0  0  0  0  0
    3.5799    0.8812   -1.1547 H   0  0  0  0  0  0  0  0  0  0  0  0
    3.5031   -0.3150    1.0944 H   0  0  0  0  0  0  0  0  0  0  0  0
    4.2018    1.0988    1.8682 H   0  0  0  0  0  0  0  0  0  0  0  0
    7.4385    0.4717    0.5431 H   0  0  0  0  0  0  0  0  0  0  0  0
    6.5106    1.3590    1.7679 H   0  0  0  0  0  0  0  0  0  0  0  0
    6.3801    1.7961    0.0322 H   0  0  0  0  0  0  0  0  0  0  0  0
    1.1577   -3.8896   -1.8574 H   0  0  0  0  0  0  0  0  0  0  0  0
    1.4479   -3.2811   -0.2125 H   0  0  0  0  0  0  0  0  0  0  0  0
    2.2901   -2.5554   -1.6019 H   0  0  0  0  0  0  0  0  0  0  0  0
  1  2  1  0
  2  3  2  0
  3  4  1  0
  4  5  2  3
  5  6  1  0
  6  7  2  0
  7  8  1  0
  8  9  2  0
  9 10  1  0
 10 11  2  0
 11 12  1  0
  4 13  1  0
 13 14  1  0
 14 15  2  3
 15 16  1  0
 16 17  1  0
 17 18  1  0
 18 19  1  0
 14 20  1  0
 20 21  2  0
 21 22  1  0
 22 23  1  0
 22  1  1  0
 21  3  1  0
 11  6  1  0
  1 24  1  0
  2 25  1  0
  7 26  1  0
  8 27  1  0
  9 28  1  0
 10 29  1  0
 13 30  1  0
 16 31  1  0
 16 32  1  0
 17 33  1  0
 17 34  1  0
 19 35  1  0
 19 36  1  0
 19 37  1  0
 23 38  1  0
 23 39  1  0
 23 40  1  0
M  END
>  <ScrubInfo>  (8) 
{"isomerGroup": 0, "isomerId": 7, "confId": 0, "nr_conformers:": 1, "nr_isomers:": 9}

$$$$
_i8
     RDKit          3D

 40 42  0  0  0  0  0  0  0  0999 V2000
    1.0801   -1.0738   -0.5567 N   0  0  0  0  0  0  0  0  0  0  0  0
    0.6528    0.2460   -0.5157 C   0  0  0  0  0  0  0  0  0  0  0  0
    1.3713    1.3186   -0.5194 N   0  0  0  0  0  0  0  0  0  0  0  0
    2.8270    1.1994   -0.5923 C   0  0  0  0  0  0  0  0  0  0  0  0
    3.4306    1.0372    0.8021 C   0  0  0  0  0  0  0  0  0  0  0  0
    4.7951    0.6348    0.6693 O   0  0  0  0  0  0  0  0  0  0  0  0
    5.4362    0.5452    1.9356 C   0  0  0  0  0  0  0  0  0  0  0  0
   -0.7206    0.3836   -0.4539 N   0  0  0  0  0  0  0  0  0  0  0  0
   -1.7275   -0.5613   -0.4218 C   0  0  0  0  0  0  0  0  0  0  0  0
   -3.0125   -0.4423   -0.3640 N   0  0  0  0  0  0  0  0  0  0  0  0
   -3.5597    0.8518   -0.3060 C   0  0  0  0  0  0  0  0  0  0  0  0
   -4.0508    1.4185   -1.4881 C   0  0  0  0  0  0  0  0  0  0  0  0
   -4.6123    2.6973   -1.4891 C   0  0  0  0  0  0  0  0  0  0  0  0
   -4.6986    3.4218   -0.3019 C   0  0  0  0  0  0  0  0  0  0  0  0
   -4.2287    2.8661    0.8883 C   0  0  0  0  0  0  0  0  0  0  0  0
   -3.6671    1.5858    0.8886 C   0  0  0  0  0  0  0  0  0  0  0  0
   -3.0949    0.9479    2.3899 Cl  0  0  0  0  0  0  0  0  0  0  0  0
   -1.1776   -1.8951   -0.4687 C   0  0  0  0  0  0  0  0  0  0  0  0
   -1.7137   -3.1911   -0.4671 C   0  0  0  0  0  0  0  0  0  0  0  0
   -0.7621   -4.1353   -0.5305 N   0  0  0  0  0  0  0  0  0  0  0  0
    0.3944   -3.4294   -0.5609 N   0  0  0  0  0  0  0  0  0  0  0  0
    1.6452   -4.1418   -0.6310 C   0  0  0  0  0  0  0  0  0  0  0  0
    0.1810   -2.0844   -0.5314 C   0  0  0  0  0  0  0  0  0  0  0  0
    2.0766   -1.2416   -0.5966 H   0  0  0  0  0  0  0  0  0  0  0  0
    3.2285    2.1124   -1.0486 H   0  0  0  0  0  0  0  0  0  0  0  0
    3.1487    0.3943   -1.2638 H   0  0  0  0  0  0  0  0  0  0  0  0
    3.3662    1.9857    1.3486 H   0  0  0  0  0  0  0  0  0  0  0  0
    2.8910    0.2721    1.3720 H   0  0  0  0  0  0  0  0  0  0  0  0
    5.4436    1.5210    2.4309 H   0  0  0  0  0  0  0  0  0  0  0  0
    4.9355   -0.1951    2.5669 H   0  0  0  0  0  0  0  0  0  0  0  0
    6.4698    0.2268    1.7761 H   0  0  0  0  0  0  0  0  0  0  0  0
   -1.0129    1.3486   -0.4211 H   0  0  0  0  0  0  0  0  0  0  0  0
   -3.9979    0.8524   -2.4154 H   0  0  0  0  0  0  0  0  0  0  0  0
   -4.9886    3.1231   -2.4164 H   0  0  0  0  0  0  0  0  0  0  0  0
   -5.1397    4.4159   -0.3013 H   0  0  0  0  0  0  0  0  0  0  0  0
   -4.3065    3.4321    1.8131 H   0  0  0  0  0  0  0  0  0  0  0  0
   -2.7540   -3.4877   -0.4246 H   0  0  0  0  0  0  0  0  0  0  0  0
    1.6110   -4.9810    0.0687 H   0  0  0  0  0  0  0  0  0  0  0  0
    2.4669   -3.4760   -0.3588 H   0  0  0  0  0  0  0  0  0  0  0  0
    1.7746   -4.5028   -1.6542 H   0  0  0  0  0  0  0  0  0  0  0  0
  1  2  1  0
  2  3  2  3
  3  4  1  0
  4  5  1  0
  5  6  1  0
  6  7  1  0
  2  8  1  0
  8  9  1  0
  9 10  2  3
 10 11  1  0
 11 12  2  0
 12 13  1  0
 13 14  2  0
 14 15  1  0
 15 16  2  0
 16 17  1  0
  9 18  1  0
 18 19  1  0
 19 20  2  0
 20 21  1  0
 21 22  1  0
 21 23  1  0
 23  1  1  0
 16 11  1  0
 23 18  2  0
  1 24  1  0
  4 25  1  0
  4 26  1  0
  5 27  1  0
  5 28  1  0
  7 29  1  0
  7 30  1  0
  7 31  1  0
  8 32  1  0
 12 33  1  0
 13 34  1  0
 14 35  1  0
 15 36  1  0
 19 37  1  0
 22 38  1  0
 22 39  1  0
 22 40  1  0
M  END
>  <ScrubInfo>  (9) 
{"isomerGroup": 0, "isomerId": 8, "confId": 0, "nr_conformers:": 1, "nr_isomers:": 9}

$$$$
