REMARK SMILES COCCNc1nc(Nc2ccccc2C)c2cnn(C)c2n1
REMARK SMILES IDX 5 1 4 3 3 4 2 5 1 6 6 7 7 8 23 9 8 10 22 11 17 12 20 13
REMARK SMILES IDX 18 14 19 15 21 16 9 17 10 19 11 20 15 21 12 22 14 23 13 24
REMARK SMILES IDX 16 25
REMARK H PARENT 5 2 9 18
ROOT
ATOM      1  N   UNL     1       2.987  -0.861   0.599  1.00  0.00    -0.352 N 
ATOM      2  H   UNL     1       3.316  -1.745   0.225  1.00  0.00     0.163 HD
ENDROOT
BRANCH   1   3
ATOM      3  C   UNL     1       3.404   0.319  -0.146  1.00  0.00     0.144 C 
BRANCH   3   4
ATOM      4  C   UNL     1       4.934   0.359  -0.264  1.00  0.00     0.181 C 
BRANCH   4   5
ATOM      5  O   UNL     1       5.384   1.410  -1.122  1.00  0.00    -0.383 OA
ATOM      6  C   UNL     1       5.395   2.681  -0.486  1.00  0.00     0.194 C 
ENDBRANCH   4   5
ENDBRANCH   3   4
ENDBRANCH   1   3
BRANCH   1   7
ATOM      7  C   UNL     1       1.608  -1.004   0.720  1.00  0.00     0.226 A 
ATOM      8  N   UNL     1       0.836   0.090   0.861  1.00  0.00    -0.195 NA
ATOM      9  N   UNL     1       1.174  -2.270   0.677  1.00  0.00    -0.193 NA
ATOM     10  C   UNL     1      -0.509  -0.037   0.986  1.00  0.00     0.147 A 
ATOM     11  C   UNL     1      -0.158  -2.369   0.812  1.00  0.00     0.165 A 
ATOM     12  C   UNL     1      -1.048  -1.325   0.967  1.00  0.00     0.082 A 
ATOM     13  N   UNL     1      -0.911  -3.511   0.828  1.00  0.00    -0.250 N 
ATOM     14  C   UNL     1      -2.308  -1.949   1.065  1.00  0.00     0.149 A 
ATOM     15  N   UNL     1      -2.236  -3.283   0.976  1.00  0.00    -0.179 NA
ATOM     16  C   UNL     1      -0.435  -4.865   0.708  1.00  0.00     0.176 C 
BRANCH  10  17
ATOM     17  N   UNL     1      -1.250   1.149   1.138  1.00  0.00    -0.339 N 
ATOM     18  H   UNL     1      -0.607   1.910   0.929  1.00  0.00     0.168 HD
BRANCH  17  19
ATOM     19  C   UNL     1      -2.524   1.391   0.579  1.00  0.00     0.043 A 
ATOM     20  C   UNL     1      -3.554   1.759   1.457  1.00  0.00     0.026 A 
ATOM     21  C   UNL     1      -2.776   1.365  -0.807  1.00  0.00    -0.028 A 
ATOM     22  C   UNL     1      -4.837   2.034   0.984  1.00  0.00     0.002 A 
ATOM     23  C   UNL     1      -4.077   1.630  -1.268  1.00  0.00     0.005 A 
ATOM     24  C   UNL     1      -5.100   1.961  -0.379  1.00  0.00     0.000 A 
ATOM     25  C   UNL     1      -1.710   1.033  -1.815  1.00  0.00     0.046 C 
ENDBRANCH  17  19
ENDBRANCH  10  17
ENDBRANCH   1   7
TORSDOF 6
