_i0
     RDKit          3D

 43 45  0  0  0  0  0  0  0  0999 V2000
    5.3950    2.6811   -0.4858 C   0  0  0  0  0  0  0  0  0  0  0  0
    5.3844    1.4098   -1.1224 O   0  0  0  0  0  0  0  0  0  0  0  0
    4.9340    0.3591   -0.2640 C   0  0  0  0  0  0  0  0  0  0  0  0
    3.4043    0.3188   -0.1457 C   0  0  0  0  0  0  0  0  0  0  0  0
    2.9872   -0.8605    0.5992 N   0  0  0  0  0  0  0  0  0  0  0  0
    1.6083   -1.0040    0.7197 C   0  0  0  0  0  0  0  0  0  0  0  0
    0.8356    0.0901    0.8614 N   0  0  0  0  0  0  0  0  0  0  0  0
   -0.5092   -0.0370    0.9856 C   0  0  0  0  0  0  0  0  0  0  0  0
   -1.2497    1.1490    1.1376 N   0  0  0  0  0  0  0  0  0  0  0  0
   -2.5236    1.3907    0.5785 C   0  0  0  0  0  0  0  0  0  0  0  0
   -3.5543    1.7589    1.4566 C   0  0  0  0  0  0  0  0  0  0  0  0
   -4.8367    2.0343    0.9841 C   0  0  0  0  0  0  0  0  0  0  0  0
   -5.1001    1.9613   -0.3789 C   0  0  0  0  0  0  0  0  0  0  0  0
   -4.0775    1.6302   -1.2681 C   0  0  0  0  0  0  0  0  0  0  0  0
   -2.7762    1.3650   -0.8071 C   0  0  0  0  0  0  0  0  0  0  0  0
   -1.7105    1.0329   -1.8155 C   0  0  0  0  0  0  0  0  0  0  0  0
   -1.0478   -1.3248    0.9667 C   0  0  0  0  0  0  0  0  0  0  0  0
   -2.3082   -1.9489    1.0647 C   0  0  0  0  0  0  0  0  0  0  0  0
   -2.2363   -3.2830    0.9759 N   0  0  0  0  0  0  0  0  0  0  0  0
   -0.9108   -3.5106    0.8276 N   0  0  0  0  0  0  0  0  0  0  0  0
   -0.4346   -4.8654    0.7080 C   0  0  0  0  0  0  0  0  0  0  0  0
   -0.1575   -2.3685    0.8116 C   0  0  0  0  0  0  0  0  0  0  0  0
    1.1739   -2.2700    0.6770 N   0  0  0  0  0  0  0  0  0  0  0  0
    4.3818    2.9950   -0.2214 H   0  0  0  0  0  0  0  0  0  0  0  0
    6.0302    2.6612    0.4050 H   0  0  0  0  0  0  0  0  0  0  0  0
    5.8072    3.4106   -1.1884 H   0  0  0  0  0  0  0  0  0  0  0  0
    5.2839   -0.5789   -0.7103 H   0  0  0  0  0  0  0  0  0  0  0  0
    5.4098    0.4355    0.7215 H   0  0  0  0  0  0  0  0  0  0  0  0
    3.0642    1.2332    0.3543 H   0  0  0  0  0  0  0  0  0  0  0  0
    2.9672    0.3193   -1.1526 H   0  0  0  0  0  0  0  0  0  0  0  0
    3.3157   -1.7452    0.2246 H   0  0  0  0  0  0  0  0  0  0  0  0
   -0.6071    1.9102    0.9292 H   0  0  0  0  0  0  0  0  0  0  0  0
   -3.3567    1.8153    2.5250 H   0  0  0  0  0  0  0  0  0  0  0  0
   -5.6268    2.3029    1.6801 H   0  0  0  0  0  0  0  0  0  0  0  0
   -6.0993    2.1693   -0.7528 H   0  0  0  0  0  0  0  0  0  0  0  0
   -4.3009    1.5886   -2.3324 H   0  0  0  0  0  0  0  0  0  0  0  0
   -1.5523   -0.0487   -1.8589 H   0  0  0  0  0  0  0  0  0  0  0  0
   -1.9947    1.3742   -2.8170 H   0  0  0  0  0  0  0  0  0  0  0  0
   -0.7683    1.5333   -1.5707 H   0  0  0  0  0  0  0  0  0  0  0  0
   -3.2776   -1.4847    1.1950 H   0  0  0  0  0  0  0  0  0  0  0  0
   -0.7185   -5.4106    1.6117 H   0  0  0  0  0  0  0  0  0  0  0  0
    0.6520   -4.8726    0.5977 H   0  0  0  0  0  0  0  0  0  0  0  0
   -0.8992   -5.3166   -0.1724 H   0  0  0  0  0  0  0  0  0  0  0  0
  1  2  1  0
  2  3  1  0
  3  4  1  0
  4  5  1  0
  5  6  1  0
  6  7  2  0
  7  8  1  0
  8  9  1  0
  9 10  1  0
 10 11  2  0
 11 12  1  0
 12 13  2  0
 13 14  1  0
 14 15  2  0
 15 16  1  0
  8 17  2  0
 17 18  1  0
 18 19  2  0
 19 20  1  0
 20 21  1  0
 20 22  1  0
 22 23  2  0
 23  6  1  0
 15 10  1  0
 22 17  1  0
  1 24  1  0
  1 25  1  0
  1 26  1  0
  3 27  1  0
  3 28  1  0
  4 29  1  0
  4 30  1  0
  5 31  1  0
  9 32  1  0
 11 33  1  0
 12 34  1  0
 13 35  1  0
 14 36  1  0
 16 37  1  0
 16 38  1  0
 16 39  1  0
 18 40  1  0
 21 41  1  0
 21 42  1  0
 21 43  1  0
M  END
>  <ScrubInfo>  (1) 
{"isomerGroup": 0, "isomerId": 0, "confId": 0, "nr_conformers:": 1, "nr_isomers:": 9}

$$$$
_i1
     RDKit          3D

 43 45  0  0  0  0  0  0  0  0999 V2000
    0.1713    0.3959   -0.2195 N   0  0  0  0  0  0  0  0  0  0  0  0
   -1.0040    0.4020   -0.9524 C   0  0  0  0  0  0  0  0  0  0  0  0
   -2.1948   -0.0756   -0.4360 N   0  0  0  0  0  0  0  0  0  0  0  0
   -2.6441   -0.0407    0.9040 C   0  0  0  0  0  0  0  0  0  0  0  0
   -2.1238    0.8684    1.8398 C   0  0  0  0  0  0  0  0  0  0  0  0
   -2.5589    0.8717    3.1666 C   0  0  0  0  0  0  0  0  0  0  0  0
   -3.5209   -0.0399    3.5837 C   0  0  0  0  0  0  0  0  0  0  0  0
   -4.0478   -0.9547    2.6747 C   0  0  0  0  0  0  0  0  0  0  0  0
   -3.6152   -0.9705    1.3373 C   0  0  0  0  0  0  0  0  0  0  0  0
   -4.1995   -1.9922    0.3985 C   0  0  0  0  0  0  0  0  0  0  0  0
   -0.8849    0.8404   -2.2108 C   0  0  0  0  0  0  0  0  0  0  0  0
   -1.7379    1.0219   -3.3901 C   0  0  0  0  0  0  0  0  0  0  0  0
   -1.0955    1.5086   -4.4211 N   0  0  0  0  0  0  0  0  0  0  0  0
    0.2172    1.7279   -3.9703 N   0  0  0  0  0  0  0  0  0  0  0  0
    1.2619    1.9551   -4.9400 C   0  0  0  0  0  0  0  0  0  0  0  0
    0.4427    1.2985   -2.6716 C   0  0  0  0  0  0  0  0  0  0  0  0
    1.5289    1.2665   -1.9804 N   0  0  0  0  0  0  0  0  0  0  0  0
    1.4072    0.7603   -0.7043 C   0  0  0  0  0  0  0  0  0  0  0  0
    2.5273    0.6868   -0.0796 N   0  0  0  0  0  0  0  0  0  0  0  0
    2.5496    0.1741    1.2906 C   0  0  0  0  0  0  0  0  0  0  0  0
    4.0026   -0.0276    1.7306 C   0  0  0  0  0  0  0  0  0  0  0  0
    4.4754   -1.2924    1.2542 O   0  0  0  0  0  0  0  0  0  0  0  0
    5.8642   -1.4564    1.5022 C   0  0  0  0  0  0  0  0  0  0  0  0
    0.1176   -0.0914    0.6613 H   0  0  0  0  0  0  0  0  0  0  0  0
   -2.9592   -0.1725   -1.0961 H   0  0  0  0  0  0  0  0  0  0  0  0
   -1.3963    1.6189    1.5404 H   0  0  0  0  0  0  0  0  0  0  0  0
   -2.1513    1.5936    3.8698 H   0  0  0  0  0  0  0  0  0  0  0  0
   -3.8631   -0.0385    4.6154 H   0  0  0  0  0  0  0  0  0  0  0  0
   -4.7978   -1.6640    3.0188 H   0  0  0  0  0  0  0  0  0  0  0  0
   -4.8586   -2.6918    0.9235 H   0  0  0  0  0  0  0  0  0  0  0  0
   -4.7905   -1.4967   -0.3784 H   0  0  0  0  0  0  0  0  0  0  0  0
   -3.4037   -2.5823   -0.0676 H   0  0  0  0  0  0  0  0  0  0  0  0
   -2.7998    0.7467   -3.3715 H   0  0  0  0  0  0  0  0  0  0  0  0
    0.8877    2.5489   -5.7802 H   0  0  0  0  0  0  0  0  0  0  0  0
    1.6350    1.0023   -5.3283 H   0  0  0  0  0  0  0  0  0  0  0  0
    2.0983    2.5012   -4.4922 H   0  0  0  0  0  0  0  0  0  0  0  0
    2.0158   -0.7802    1.3651 H   0  0  0  0  0  0  0  0  0  0  0  0
    2.0781    0.9099    1.9519 H   0  0  0  0  0  0  0  0  0  0  0  0
    4.6392    0.7826    1.3557 H   0  0  0  0  0  0  0  0  0  0  0  0
    4.0495   -0.0411    2.8254 H   0  0  0  0  0  0  0  0  0  0  0  0
    6.0720   -1.3977    2.5750 H   0  0  0  0  0  0  0  0  0  0  0  0
    6.1644   -2.4439    1.1416 H   0  0  0  0  0  0  0  0  0  0  0  0
    6.4416   -0.6986    0.9641 H   0  0  0  0  0  0  0  0  0  0  0  0
  1  2  1  0
  2  3  1  0
  3  4  1  0
  4  5  2  0
  5  6  1  0
  6  7  2  0
  7  8  1  0
  8  9  2  0
  9 10  1  0
  2 11  2  0
 11 12  1  0
 12 13  2  0
 13 14  1  0
 14 15  1  0
 14 16  1  0
 16 17  2  0
 17 18  1  0
 18 19  2  3
 19 20  1  0
 20 21  1  0
 21 22  1  0
 22 23  1  0
 18  1  1  0
  9  4  1  0
 16 11  1  0
  1 24  1  0
  3 25  1  0
  5 26  1  0
  6 27  1  0
  7 28  1  0
  8 29  1  0
 10 30  1  0
 10 31  1  0
 10 32  1  0
 12 33  1  0
 15 34  1  0
 15 35  1  0
 15 36  1  0
 20 37  1  0
 20 38  1  0
 21 39  1  0
 21 40  1  0
 23 41  1  0
 23 42  1  0
 23 43  1  0
M  END
>  <ScrubInfo>  (2) 
{"isomerGroup": 0, "isomerId": 1, "confId": 0, "nr_conformers:": 1, "nr_isomers:": 9}

$$$$
_i2
     RDKit          3D

 43 45  0  0  0  0  0  0  0  0999 V2000
    0.6536   -0.8943   -0.0966 N   0  0  0  0  0  0  0  0  0  0  0  0
    1.5875   -0.1084   -0.7223 C   0  0  0  0  0  0  0  0  0  0  0  0
    2.8089   -0.6819   -0.9292 N   0  0  0  0  0  0  0  0  0  0  0  0
    3.5415   -1.3530    0.1414 C   0  0  0  0  0  0  0  0  0  0  0  0
    4.9972   -1.5809   -0.2876 C   0  0  0  0  0  0  0  0  0  0  0  0
    5.6362   -0.3635   -0.6902 O   0  0  0  0  0  0  0  0  0  0  0  0
    6.0329    0.4546    0.4030 C   0  0  0  0  0  0  0  0  0  0  0  0
    1.3646    1.1177   -1.1210 N   0  0  0  0  0  0  0  0  0  0  0  0
    0.0961    1.5178   -0.8210 C   0  0  0  0  0  0  0  0  0  0  0  0
   -0.9125    0.7986   -0.1966 C   0  0  0  0  0  0  0  0  0  0  0  0
   -1.9946    1.6947   -0.1412 C   0  0  0  0  0  0  0  0  0  0  0  0
   -1.7091    2.8874   -0.6800 N   0  0  0  0  0  0  0  0  0  0  0  0
   -0.4290    2.7495   -1.0939 N   0  0  0  0  0  0  0  0  0  0  0  0
    0.2254    3.8562   -1.7449 C   0  0  0  0  0  0  0  0  0  0  0  0
   -0.6485   -0.5697    0.2050 C   0  0  0  0  0  0  0  0  0  0  0  0
   -1.4513   -1.4296    0.7547 N   0  0  0  0  0  0  0  0  0  0  0  0
   -2.7798   -1.1132    1.0578 C   0  0  0  0  0  0  0  0  0  0  0  0
   -3.0844   -0.6106    2.3289 C   0  0  0  0  0  0  0  0  0  0  0  0
   -4.3990   -0.2998    2.6761 C   0  0  0  0  0  0  0  0  0  0  0  0
   -5.4239   -0.5031    1.7563 C   0  0  0  0  0  0  0  0  0  0  0  0
   -5.1367   -1.0287    0.4958 C   0  0  0  0  0  0  0  0  0  0  0  0
   -3.8184   -1.3541    0.1401 C   0  0  0  0  0  0  0  0  0  0  0  0
   -3.5311   -1.9206   -1.2215 C   0  0  0  0  0  0  0  0  0  0  0  0
    0.8738   -1.8681    0.0263 H   0  0  0  0  0  0  0  0  0  0  0  0
    3.4208   -0.0068   -1.3948 H   0  0  0  0  0  0  0  0  0  0  0  0
    3.5085   -0.7344    1.0445 H   0  0  0  0  0  0  0  0  0  0  0  0
    3.0764   -2.3172    0.3716 H   0  0  0  0  0  0  0  0  0  0  0  0
    5.5712   -2.0674    0.5092 H   0  0  0  0  0  0  0  0  0  0  0  0
    5.0160   -2.2455   -1.1586 H   0  0  0  0  0  0  0  0  0  0  0  0
    6.6975   -0.0958    1.0756 H   0  0  0  0  0  0  0  0  0  0  0  0
    5.1621    0.8249    0.9500 H   0  0  0  0  0  0  0  0  0  0  0  0
    6.5776    1.3149    0.0046 H   0  0  0  0  0  0  0  0  0  0  0  0
   -2.9861    1.5487    0.2643 H   0  0  0  0  0  0  0  0  0  0  0  0
   -0.3685    4.1432   -2.6165 H   0  0  0  0  0  0  0  0  0  0  0  0
    1.2293    3.5670   -2.0630 H   0  0  0  0  0  0  0  0  0  0  0  0
    0.2854    4.6846   -1.0345 H   0  0  0  0  0  0  0  0  0  0  0  0
   -2.2863   -0.4570    3.0502 H   0  0  0  0  0  0  0  0  0  0  0  0
   -4.6212    0.0987    3.6622 H   0  0  0  0  0  0  0  0  0  0  0  0
   -6.4495   -0.2593    2.0218 H   0  0  0  0  0  0  0  0  0  0  0  0
   -5.9505   -1.1887   -0.2082 H   0  0  0  0  0  0  0  0  0  0  0  0
   -3.0341   -1.1714   -1.8455 H   0  0  0  0  0  0  0  0  0  0  0  0
   -4.4524   -2.2267   -1.7284 H   0  0  0  0  0  0  0  0  0  0  0  0
   -2.8956   -2.8088   -1.1442 H   0  0  0  0  0  0  0  0  0  0  0  0
  1  2  1  0
  2  3  1  0
  3  4  1  0
  4  5  1  0
  5  6  1  0
  6  7  1  0
  2  8  2  0
  8  9  1  0
  9 10  2  0
 10 11  1  0
 11 12  2  0
 12 13  1  0
 13 14  1  0
 10 15  1  0
 15 16  2  3
 16 17  1  0
 17 18  2  0
 18 19  1  0
 19 20  2  0
 20 21  1  0
 21 22  2  0
 22 23  1  0
 15  1  1  0
 22 17  1  0
 13  9  1  0
  1 24  1  0
  3 25  1  0
  4 26  1  0
  4 27  1  0
  5 28  1  0
  5 29  1  0
  7 30  1  0
  7 31  1  0
  7 32  1  0
 11 33  1  0
 14 34  1  0
 14 35  1  0
 14 36  1  0
 18 37  1  0
 19 38  1  0
 20 39  1  0
 21 40  1  0
 23 41  1  0
 23 42  1  0
 23 43  1  0
M  END
>  <ScrubInfo>  (3) 
{"isomerGroup": 0, "isomerId": 2, "confId": 0, "nr_conformers:": 1, "nr_isomers:": 9}

$$$$
_i3
     RDKit          3D

 43 45  0  0  0  0  0  0  0  0999 V2000
    1.2288    1.2698    0.0412 N   0  0  0  0  0  0  0  0  0  0  0  0
    1.4999   -0.0671   -0.2054 C   0  0  0  0  0  0  0  0  0  0  0  0
    2.5463   -0.5349   -0.7864 N   0  0  0  0  0  0  0  0  0  0  0  0
    3.5896    0.3758   -1.2469 C   0  0  0  0  0  0  0  0  0  0  0  0
    4.7474   -0.4268   -1.8597 C   0  0  0  0  0  0  0  0  0  0  0  0
    5.4720   -1.2326   -0.9267 O   0  0  0  0  0  0  0  0  0  0  0  0
    6.2189   -0.4904    0.0228 C   0  0  0  0  0  0  0  0  0  0  0  0
    0.6087   -1.0600    0.1725 N   0  0  0  0  0  0  0  0  0  0  0  0
   -0.5127   -0.7409    0.7553 C   0  0  0  0  0  0  0  0  0  0  0  0
   -1.4199   -1.6869    1.1626 N   0  0  0  0  0  0  0  0  0  0  0  0
   -2.7989   -1.6554    0.8270 C   0  0  0  0  0  0  0  0  0  0  0  0
   -3.7054   -1.9811    1.8503 C   0  0  0  0  0  0  0  0  0  0  0  0
   -5.0786   -2.0192    1.6127 C   0  0  0  0  0  0  0  0  0  0  0  0
   -5.5640   -1.7577    0.3375 C   0  0  0  0  0  0  0  0  0  0  0  0
   -4.6750   -1.4816   -0.7012 C   0  0  0  0  0  0  0  0  0  0  0  0
   -3.2860   -1.4546   -0.4802 C   0  0  0  0  0  0  0  0  0  0  0  0
   -2.3842   -1.2002   -1.6575 C   0  0  0  0  0  0  0  0  0  0  0  0
   -0.8242    0.6396    1.0458 C   0  0  0  0  0  0  0  0  0  0  0  0
   -1.8494    1.3713    1.6641 C   0  0  0  0  0  0  0  0  0  0  0  0
   -1.6071    2.6924    1.6616 N   0  0  0  0  0  0  0  0  0  0  0  0
   -0.4098    2.8009    1.0370 N   0  0  0  0  0  0  0  0  0  0  0  0
    0.1691    4.1081    0.8603 C   0  0  0  0  0  0  0  0  0  0  0  0
    0.0815    1.5907    0.6636 C   0  0  0  0  0  0  0  0  0  0  0  0
    1.9186    1.9454   -0.2470 H   0  0  0  0  0  0  0  0  0  0  0  0
    3.9532    0.9918   -0.4185 H   0  0  0  0  0  0  0  0  0  0  0  0
    3.1848    1.0374   -2.0219 H   0  0  0  0  0  0  0  0  0  0  0  0
    5.4486    0.2509   -2.3608 H   0  0  0  0  0  0  0  0  0  0  0  0
    4.3544   -1.1059   -2.6245 H   0  0  0  0  0  0  0  0  0  0  0  0
    6.8638   -1.1854    0.5679 H   0  0  0  0  0  0  0  0  0  0  0  0
    5.5574   -0.0076    0.7466 H   0  0  0  0  0  0  0  0  0  0  0  0
    6.8511    0.2539   -0.4707 H   0  0  0  0  0  0  0  0  0  0  0  0
   -1.0574   -2.6043    0.9077 H   0  0  0  0  0  0  0  0  0  0  0  0
   -3.3361   -2.1872    2.8530 H   0  0  0  0  0  0  0  0  0  0  0  0
   -5.7653   -2.2519    2.4221 H   0  0  0  0  0  0  0  0  0  0  0  0
   -6.6337   -1.7812    0.1456 H   0  0  0  0  0  0  0  0  0  0  0  0
   -5.0747   -1.3001   -1.6972 H   0  0  0  0  0  0  0  0  0  0  0  0
   -2.0138   -0.1713   -1.6406 H   0  0  0  0  0  0  0  0  0  0  0  0
   -1.5430   -1.9002   -1.6620 H   0  0  0  0  0  0  0  0  0  0  0  0
   -2.9165   -1.3479   -2.6037 H   0  0  0  0  0  0  0  0  0  0  0  0
   -2.7634    1.0113    2.1181 H   0  0  0  0  0  0  0  0  0  0  0  0
   -0.5395    4.7274    0.3044 H   0  0  0  0  0  0  0  0  0  0  0  0
    0.3591    4.5364    1.8476 H   0  0  0  0  0  0  0  0  0  0  0  0
    1.1052    4.0294    0.3036 H   0  0  0  0  0  0  0  0  0  0  0  0
  1  2  1  0
  2  3  2  3
  3  4  1  0
  4  5  1  0
  5  6  1  0
  6  7  1  0
  2  8  1  0
  8  9  2  0
  9 10  1  0
 10 11  1  0
 11 12  2  0
 12 13  1  0
 13 14  2  0
 14 15  1  0
 15 16  2  0
 16 17  1  0
  9 18  1  0
 18 19  1  0
 19 20  2  0
 20 21  1  0
 21 22  1  0
 21 23  1  0
 23  1  1  0
 16 11  1  0
 23 18  2  0
  1 24  1  0
  4 25  1  0
  4 26  1  0
  5 27  1  0
  5 28  1  0
  7 29  1  0
  7 30  1  0
  7 31  1  0
 10 32  1  0
 12 33  1  0
 13 34  1  0
 14 35  1  0
 15 36  1  0
 17 37  1  0
 17 38  1  0
 17 39  1  0
 19 40  1  0
 22 41  1  0
 22 42  1  0
 22 43  1  0
M  END
>  <ScrubInfo>  (4) 
{"isomerGroup": 0, "isomerId": 3, "confId": 0, "nr_conformers:": 1, "nr_isomers:": 9}

$$$$
_i4
     RDKit          3D

 43 45  0  0  0  0  0  0  0  0999 V2000
    0.7831    4.5724    0.4179 N   0  0  0  0  0  0  0  0  0  0  0  0
    1.7191    3.5434    0.3806 C   0  0  0  0  0  0  0  0  0  0  0  0
    1.1596    2.3385    0.2127 C   0  0  0  0  0  0  0  0  0  0  0  0
    1.5969    0.9647    0.1277 C   0  0  0  0  0  0  0  0  0  0  0  0
    2.8513    0.6377    0.1563 N   0  0  0  0  0  0  0  0  0  0  0  0
    3.1921   -0.7228    0.0711 C   0  0  0  0  0  0  0  0  0  0  0  0
    3.4127   -1.2928   -1.1890 C   0  0  0  0  0  0  0  0  0  0  0  0
    3.7768   -2.6338   -1.3130 C   0  0  0  0  0  0  0  0  0  0  0  0
    3.9328   -3.4165   -0.1725 C   0  0  0  0  0  0  0  0  0  0  0  0
    3.7325   -2.8570    1.0902 C   0  0  0  0  0  0  0  0  0  0  0  0
    3.3741   -1.5062    1.2252 C   0  0  0  0  0  0  0  0  0  0  0  0
    3.1592   -0.9215    2.5919 C   0  0  0  0  0  0  0  0  0  0  0  0
    0.5790    0.0541    0.0223 N   0  0  0  0  0  0  0  0  0  0  0  0
   -0.6726    0.4088   -0.0363 C   0  0  0  0  0  0  0  0  0  0  0  0
   -1.5714   -0.6142   -0.1257 N   0  0  0  0  0  0  0  0  0  0  0  0
   -2.8814   -0.4466   -0.7257 C   0  0  0  0  0  0  0  0  0  0  0  0
   -3.7377   -1.6959   -0.5097 C   0  0  0  0  0  0  0  0  0  0  0  0
   -4.9963   -1.5297   -1.1656 O   0  0  0  0  0  0  0  0  0  0  0  0
   -5.8389   -2.6585   -0.9733 C   0  0  0  0  0  0  0  0  0  0  0  0
   -1.1400    1.6978   -0.0243 N   0  0  0  0  0  0  0  0  0  0  0  0
   -0.2706    2.6408    0.0848 C   0  0  0  0  0  0  0  0  0  0  0  0
   -0.4620    4.0237    0.1149 N   0  0  0  0  0  0  0  0  0  0  0  0
   -1.6492    4.5956    0.7205 C   0  0  0  0  0  0  0  0  0  0  0  0
    1.0602    5.3882   -0.1330 H   0  0  0  0  0  0  0  0  0  0  0  0
    2.7717    3.7696    0.4785 H   0  0  0  0  0  0  0  0  0  0  0  0
    3.2939   -0.6807   -2.0784 H   0  0  0  0  0  0  0  0  0  0  0  0
    3.9388   -3.0629   -2.2975 H   0  0  0  0  0  0  0  0  0  0  0  0
    4.2150   -4.4620   -0.2644 H   0  0  0  0  0  0  0  0  0  0  0  0
    3.8618   -3.4801    1.9720 H   0  0  0  0  0  0  0  0  0  0  0  0
    2.0954   -0.7222    2.7548 H   0  0  0  0  0  0  0  0  0  0  0  0
    3.4987   -1.6058    3.3768 H   0  0  0  0  0  0  0  0  0  0  0  0
    3.7255    0.0085    2.7068 H   0  0  0  0  0  0  0  0  0  0  0  0
   -1.0955   -1.4818   -0.3463 H   0  0  0  0  0  0  0  0  0  0  0  0
   -3.4044    0.4159   -0.2954 H   0  0  0  0  0  0  0  0  0  0  0  0
   -2.7794   -0.2499   -1.7996 H   0  0  0  0  0  0  0  0  0  0  0  0
   -3.2288   -2.5764   -0.9204 H   0  0  0  0  0  0  0  0  0  0  0  0
   -3.8987   -1.8575    0.5630 H   0  0  0  0  0  0  0  0  0  0  0  0
   -6.0515   -2.8008    0.0906 H   0  0  0  0  0  0  0  0  0  0  0  0
   -5.3750   -3.5581   -1.3891 H   0  0  0  0  0  0  0  0  0  0  0  0
   -6.7815   -2.4776   -1.4967 H   0  0  0  0  0  0  0  0  0  0  0  0
   -1.6746    4.3915    1.7960 H   0  0  0  0  0  0  0  0  0  0  0  0
   -2.5530    4.1803    0.2634 H   0  0  0  0  0  0  0  0  0  0  0  0
   -1.6675    5.6801    0.5715 H   0  0  0  0  0  0  0  0  0  0  0  0
  1  2  1  0
  2  3  2  0
  3  4  1  0
  4  5  2  3
  5  6  1  0
  6  7  2  0
  7  8  1  0
  8  9  2  0
  9 10  1  0
 10 11  2  0
 11 12  1  0
  4 13  1  0
 13 14  2  0
 14 15  1  0
 15 16  1  0
 16 17  1  0
 17 18  1  0
 18 19  1  0
 14 20  1  0
 20 21  2  0
 21 22  1  0
 22 23  1  0
 22  1  1  0
 21  3  1  0
 11  6  1  0
  1 24  1  0
  2 25  1  0
  7 26  1  0
  8 27  1  0
  9 28  1  0
 10 29  1  0
 12 30  1  0
 12 31  1  0
 12 32  1  0
 15 33  1  0
 16 34  1  0
 16 35  1  0
 17 36  1  0
 17 37  1  0
 19 38  1  0
 19 39  1  0
 19 40  1  0
 23 41  1  0
 23 42  1  0
 23 43  1  0
M  END
>  <ScrubInfo>  (5) 
{"isomerGroup": 0, "isomerId": 4, "confId": 0, "nr_conformers:": 1, "nr_isomers:": 9}

$$$$
_i5
     RDKit          3D

 43 45  0  0  0  0  0  0  0  0999 V2000
    1.6884   -1.4981   -0.7363 N   0  0  0  0  0  0  0  0  0  0  0  0
    1.0720   -0.4019   -0.1702 C   0  0  0  0  0  0  0  0  0  0  0  0
    1.8939    0.6906   -0.1515 N   0  0  0  0  0  0  0  0  0  0  0  0
    1.3649    1.9992    0.2333 C   0  0  0  0  0  0  0  0  0  0  0  0
    2.4983    3.0276    0.2336 C   0  0  0  0  0  0  0  0  0  0  0  0
    3.0829    3.0810   -1.0763 O   0  0  0  0  0  0  0  0  0  0  0  0
    4.1239    4.0481   -1.1392 C   0  0  0  0  0  0  0  0  0  0  0  0
   -0.1400   -0.3842    0.3101 N   0  0  0  0  0  0  0  0  0  0  0  0
   -0.9127   -1.5353    0.2579 C   0  0  0  0  0  0  0  0  0  0  0  0
   -2.1358   -1.6163    0.6752 N   0  0  0  0  0  0  0  0  0  0  0  0
   -2.7269   -0.4624    1.2157 C   0  0  0  0  0  0  0  0  0  0  0  0
   -2.6049   -0.2105    2.5879 C   0  0  0  0  0  0  0  0  0  0  0  0
   -3.1994    0.9123    3.1640 C   0  0  0  0  0  0  0  0  0  0  0  0
   -3.9318    1.7912    2.3709 C   0  0  0  0  0  0  0  0  0  0  0  0
   -4.0753    1.5436    1.0050 C   0  0  0  0  0  0  0  0  0  0  0  0
   -3.4871    0.4120    0.4178 C   0  0  0  0  0  0  0  0  0  0  0  0
   -3.6498    0.1615   -1.0543 C   0  0  0  0  0  0  0  0  0  0  0  0
   -0.2971   -2.7113   -0.3007 C   0  0  0  0  0  0  0  0  0  0  0  0
   -0.6765   -4.0433   -0.5108 C   0  0  0  0  0  0  0  0  0  0  0  0
    0.3061   -4.7693   -1.0709 N   0  0  0  0  0  0  0  0  0  0  0  0
    1.3212   -3.8807   -1.2176 N   0  0  0  0  0  0  0  0  0  0  0  0
    2.5595   -4.3237   -1.8047 C   0  0  0  0  0  0  0  0  0  0  0  0
    0.9844   -2.6428   -0.7715 C   0  0  0  0  0  0  0  0  0  0  0  0
    2.6831   -1.4411   -0.9036 H   0  0  0  0  0  0  0  0  0  0  0  0
    2.4822    0.7876   -0.9750 H   0  0  0  0  0  0  0  0  0  0  0  0
    0.9132    1.9530    1.2301 H   0  0  0  0  0  0  0  0  0  0  0  0
    0.5988    2.2992   -0.4910 H   0  0  0  0  0  0  0  0  0  0  0  0
    2.1011    4.0136    0.4991 H   0  0  0  0  0  0  0  0  0  0  0  0
    3.2690    2.7415    0.9589 H   0  0  0  0  0  0  0  0  0  0  0  0
    4.5348    4.0456   -2.1523 H   0  0  0  0  0  0  0  0  0  0  0  0
    3.7322    5.0467   -0.9230 H   0  0  0  0  0  0  0  0  0  0  0  0
    4.9238    3.7957   -0.4365 H   0  0  0  0  0  0  0  0  0  0  0  0
   -2.0355   -0.8983    3.2067 H   0  0  0  0  0  0  0  0  0  0  0  0
   -3.0910    1.0964    4.2289 H   0  0  0  0  0  0  0  0  0  0  0  0
   -4.3964    2.6670    2.8157 H   0  0  0  0  0  0  0  0  0  0  0  0
   -4.6546    2.2363    0.3992 H   0  0  0  0  0  0  0  0  0  0  0  0
   -3.9981   -0.8607   -1.2349 H   0  0  0  0  0  0  0  0  0  0  0  0
   -4.3892    0.8384   -1.4954 H   0  0  0  0  0  0  0  0  0  0  0  0
   -2.6981    0.3183   -1.5717 H   0  0  0  0  0  0  0  0  0  0  0  0
   -1.6209   -4.5181   -0.2774 H   0  0  0  0  0  0  0  0  0  0  0  0
    2.3434   -4.7514   -2.7870 H   0  0  0  0  0  0  0  0  0  0  0  0
    3.0007   -5.0775   -1.1479 H   0  0  0  0  0  0  0  0  0  0  0  0
    3.2434   -3.4792   -1.9132 H   0  0  0  0  0  0  0  0  0  0  0  0
  1  2  1  0
  2  3  1  0
  3  4  1  0
  4  5  1  0
  5  6  1  0
  6  7  1  0
  2  8  2  0
  8  9  1  0
  9 10  2  3
 10 11  1  0
 11 12  2  0
 12 13  1  0
 13 14  2  0
 14 15  1  0
 15 16  2  0
 16 17  1  0
  9 18  1  0
 18 19  1  0
 19 20  2  0
 20 21  1  0
 21 22  1  0
 21 23  1  0
 23  1  1  0
 16 11  1  0
 23 18  2  0
  1 24  1  0
  3 25  1  0
  4 26  1  0
  4 27  1  0
  5 28  1  0
  5 29  1  0
  7 30  1  0
  7 31  1  0
  7 32  1  0
 12 33  1  0
 13 34  1  0
 14 35  1  0
 15 36  1  0
 17 37  1  0
 17 38  1  0
 17 39  1  0
 19 40  1  0
 22 41  1  0
 22 42  1  0
 22 43  1  0
M  END
>  <ScrubInfo>  (6) 
{"isomerGroup": 0, "isomerId": 5, "confId": 0, "nr_conformers:": 1, "nr_isomers:": 9}

$$$$
_i6
     RDKit          3D

 43 45  0  0  0  0  0  0  0  0999 V2000
   -0.3608    3.7989    1.6366 N   0  0  0  0  0  0  0  0  0  0  0  0
   -1.1990    2.7214    1.3718 C   0  0  0  0  0  0  0  0  0  0  0  0
   -0.5986    1.7523    0.6664 C   0  0  0  0  0  0  0  0  0  0  0  0
   -0.9245    0.4297    0.1211 C   0  0  0  0  0  0  0  0  0  0  0  0
   -2.2036   -0.0690    0.2962 N   0  0  0  0  0  0  0  0  0  0  0  0
   -2.8076   -1.2391   -0.2176 C   0  0  0  0  0  0  0  0  0  0  0  0
   -2.1961   -2.0457   -1.1888 C   0  0  0  0  0  0  0  0  0  0  0  0
   -2.8047   -3.2097   -1.6684 C   0  0  0  0  0  0  0  0  0  0  0  0
   -4.0429   -3.6007   -1.1798 C   0  0  0  0  0  0  0  0  0  0  0  0
   -4.6702   -2.8298   -0.2063 C   0  0  0  0  0  0  0  0  0  0  0  0
   -4.0655   -1.6581    0.2877 C   0  0  0  0  0  0  0  0  0  0  0  0
   -4.7956   -0.8843    1.3544 C   0  0  0  0  0  0  0  0  0  0  0  0
    0.0355   -0.1997   -0.4909 N   0  0  0  0  0  0  0  0  0  0  0  0
    1.2857    0.3639   -0.5961 C   0  0  0  0  0  0  0  0  0  0  0  0
    2.1554   -0.4072   -1.1439 N   0  0  0  0  0  0  0  0  0  0  0  0
    3.5257    0.0764   -1.3199 C   0  0  0  0  0  0  0  0  0  0  0  0
    4.3499   -0.0226   -0.0275 C   0  0  0  0  0  0  0  0  0  0  0  0
    4.3787   -1.3156    0.5840 O   0  0  0  0  0  0  0  0  0  0  0  0
    4.9153   -2.3316   -0.2486 C   0  0  0  0  0  0  0  0  0  0  0  0
    1.6552    1.6270   -0.1930 N   0  0  0  0  0  0  0  0  0  0  0  0
    0.7486    2.3074    0.4158 C   0  0  0  0  0  0  0  0  0  0  0  0
    0.8257    3.5991    0.9389 N   0  0  0  0  0  0  0  0  0  0  0  0
    2.0669    4.0986    1.5012 C   0  0  0  0  0  0  0  0  0  0  0  0
   -0.8072    4.7103    1.5085 H   0  0  0  0  0  0  0  0  0  0  0  0
   -2.2152    2.7548    1.7354 H   0  0  0  0  0  0  0  0  0  0  0  0
   -2.8360    0.5020    0.8356 H   0  0  0  0  0  0  0  0  0  0  0  0
   -1.2296   -1.7854   -1.6107 H   0  0  0  0  0  0  0  0  0  0  0  0
   -2.2998   -3.8066   -2.4236 H   0  0  0  0  0  0  0  0  0  0  0  0
   -4.5151   -4.5060   -1.5509 H   0  0  0  0  0  0  0  0  0  0  0  0
   -5.6368   -3.1538    0.1735 H   0  0  0  0  0  0  0  0  0  0  0  0
   -4.1667   -0.7752    2.2440 H   0  0  0  0  0  0  0  0  0  0  0  0
   -5.0770    0.1046    0.9785 H   0  0  0  0  0  0  0  0  0  0  0  0
   -5.7142   -1.3924    1.6671 H   0  0  0  0  0  0  0  0  0  0  0  0
    3.5507    1.1018   -1.7090 H   0  0  0  0  0  0  0  0  0  0  0  0
    3.9887   -0.5401   -2.0983 H   0  0  0  0  0  0  0  0  0  0  0  0
    5.3814    0.2934   -0.2241 H   0  0  0  0  0  0  0  0  0  0  0  0
    3.9518    0.6643    0.7260 H   0  0  0  0  0  0  0  0  0  0  0  0
    5.0660   -3.2270    0.3608 H   0  0  0  0  0  0  0  0  0  0  0  0
    4.2177   -2.5847   -1.0514 H   0  0  0  0  0  0  0  0  0  0  0  0
    5.8812   -2.0279   -0.6636 H   0  0  0  0  0  0  0  0  0  0  0  0
    2.3464    3.5295    2.3940 H   0  0  0  0  0  0  0  0  0  0  0  0
    2.8783    4.0245    0.7700 H   0  0  0  0  0  0  0  0  0  0  0  0
    1.9619    5.1524    1.7786 H   0  0  0  0  0  0  0  0  0  0  0  0
  1  2  1  0
  2  3  2  0
  3  4  1  0
  4  5  1  0
  5  6  1  0
  6  7  2  0
  7  8  1  0
  8  9  2  0
  9 10  1  0
 10 11  2  0
 11 12  1  0
  4 13  2  0
 13 14  1  0
 14 15  2  3
 15 16  1  0
 16 17  1  0
 17 18  1  0
 18 19  1  0
 14 20  1  0
 20 21  2  0
 21 22  1  0
 22 23  1  0
 22  1  1  0
 21  3  1  0
 11  6  1  0
  1 24  1  0
  2 25  1  0
  5 26  1  0
  7 27  1  0
  8 28  1  0
  9 29  1  0
 10 30  1  0
 12 31  1  0
 12 32  1  0
 12 33  1  0
 16 34  1  0
 16 35  1  0
 17 36  1  0
 17 37  1  0
 19 38  1  0
 19 39  1  0
 19 40  1  0
 23 41  1  0
 23 42  1  0
 23 43  1  0
M  END
>  <ScrubInfo>  (7) 
{"isomerGroup": 0, "isomerId": 6, "confId": 0, "nr_conformers:": 1, "nr_isomers:": 9}

$$$$
_i7
     RDKit          3D

 43 45  0  0  0  0  0  0  0  0999 V2000
    0.6032    4.4169    0.8135 N   0  0  0  0  0  0  0  0  0  0  0  0
    1.5834    3.4453    0.6425 C   0  0  0  0  0  0  0  0  0  0  0  0
    1.0783    2.2454    0.3333 C   0  0  0  0  0  0  0  0  0  0  0  0
    1.5700    0.8892    0.0820 C   0  0  0  0  0  0  0  0  0  0  0  0
    2.8493    0.6600    0.1015 N   0  0  0  0  0  0  0  0  0  0  0  0
    3.2961   -0.6489   -0.1383 C   0  0  0  0  0  0  0  0  0  0  0  0
    3.5612   -1.0471   -1.4539 C   0  0  0  0  0  0  0  0  0  0  0  0
    3.9872   -2.3453   -1.7327 C   0  0  0  0  0  0  0  0  0  0  0  0
    4.1591   -3.2552   -0.6933 C   0  0  0  0  0  0  0  0  0  0  0  0
    3.9164   -2.8643    0.6243 C   0  0  0  0  0  0  0  0  0  0  0  0
    3.4964   -1.5574    0.9160 C   0  0  0  0  0  0  0  0  0  0  0  0
    3.2415   -1.1539    2.3408 C   0  0  0  0  0  0  0  0  0  0  0  0
    0.5477    0.0021   -0.1441 N   0  0  0  0  0  0  0  0  0  0  0  0
   -0.7927    0.2833   -0.1504 C   0  0  0  0  0  0  0  0  0  0  0  0
   -1.6196   -0.6923   -0.3474 N   0  0  0  0  0  0  0  0  0  0  0  0
   -3.0477   -0.3574   -0.3497 C   0  0  0  0  0  0  0  0  0  0  0  0
   -3.8574   -1.6300   -0.5943 C   0  0  0  0  0  0  0  0  0  0  0  0
   -5.2517   -1.3138   -0.5900 O   0  0  0  0  0  0  0  0  0  0  0  0
   -6.0464   -2.4696   -0.8173 C   0  0  0  0  0  0  0  0  0  0  0  0
   -1.2682    1.5651    0.0424 N   0  0  0  0  0  0  0  0  0  0  0  0
   -0.3942    2.4989    0.2552 C   0  0  0  0  0  0  0  0  0  0  0  0
   -0.6248    3.8624    0.4572 N   0  0  0  0  0  0  0  0  0  0  0  0
   -1.8279    4.3252    1.1220 C   0  0  0  0  0  0  0  0  0  0  0  0
    0.8381    5.3090    0.3724 H   0  0  0  0  0  0  0  0  0  0  0  0
    2.6255    3.7064    0.7626 H   0  0  0  0  0  0  0  0  0  0  0  0
    3.4330   -0.3354   -2.2654 H   0  0  0  0  0  0  0  0  0  0  0  0
    4.1875   -2.6433   -2.7583 H   0  0  0  0  0  0  0  0  0  0  0  0
    4.4917   -4.2681   -0.9065 H   0  0  0  0  0  0  0  0  0  0  0  0
    4.0651   -3.5852    1.4255 H   0  0  0  0  0  0  0  0  0  0  0  0
    2.1670   -1.0382    2.5139 H   0  0  0  0  0  0  0  0  0  0  0  0
    3.6187   -1.9058    3.0420 H   0  0  0  0  0  0  0  0  0  0  0  0
    3.7506   -0.2124    2.5718 H   0  0  0  0  0  0  0  0  0  0  0  0
    0.7739   -0.9681   -0.3036 H   0  0  0  0  0  0  0  0  0  0  0  0
   -3.3544    0.0779    0.6098 H   0  0  0  0  0  0  0  0  0  0  0  0
   -3.2838    0.3687   -1.1378 H   0  0  0  0  0  0  0  0  0  0  0  0
   -3.5828   -2.0677   -1.5616 H   0  0  0  0  0  0  0  0  0  0  0  0
   -3.6456   -2.3649    0.1917 H   0  0  0  0  0  0  0  0  0  0  0  0
   -5.8822   -3.2093   -0.0278 H   0  0  0  0  0  0  0  0  0  0  0  0
   -5.8193   -2.9049   -1.7953 H   0  0  0  0  0  0  0  0  0  0  0  0
   -7.0984   -2.1723   -0.8036 H   0  0  0  0  0  0  0  0  0  0  0  0
   -1.8480    3.9929    2.1651 H   0  0  0  0  0  0  0  0  0  0  0  0
   -2.7199    3.9435    0.6149 H   0  0  0  0  0  0  0  0  0  0  0  0
   -1.8760    5.4188    1.1042 H   0  0  0  0  0  0  0  0  0  0  0  0
  1  2  1  0
  2  3  2  0
  3  4  1  0
  4  5  2  3
  5  6  1  0
  6  7  2  0
  7  8  1  0
  8  9  2  0
  9 10  1  0
 10 11  2  0
 11 12  1  0
  4 13  1  0
 13 14  1  0
 14 15  2  3
 15 16  1  0
 16 17  1  0
 17 18  1  0
 18 19  1  0
 14 20  1  0
 20 21  2  0
 21 22  1  0
 22 23  1  0
 22  1  1  0
 21  3  1  0
 11  6  1  0
  1 24  1  0
  2 25  1  0
  7 26  1  0
  8 27  1  0
  9 28  1  0
 10 29  1  0
 12 30  1  0
 12 31  1  0
 12 32  1  0
 13 33  1  0
 16 34  1  0
 16 35  1  0
 17 36  1  0
 17 37  1  0
 19 38  1  0
 19 39  1  0
 19 40  1  0
 23 41  1  0
 23 42  1  0
 23 43  1  0
M  END
>  <ScrubInfo>  (8) 
{"isomerGroup": 0, "isomerId": 7, "confId": 0, "nr_conformers:": 1, "nr_isomers:": 9}

$$$$
_i8
     RDKit          3D

 43 45  0  0  0  0  0  0  0  0999 V2000
    1.5040   -0.8103   -0.3966 N   0  0  0  0  0  0  0  0  0  0  0  0
    0.7783    0.3308   -0.0818 C   0  0  0  0  0  0  0  0  0  0  0  0
    1.1991    1.5503   -0.0206 N   0  0  0  0  0  0  0  0  0  0  0  0
    2.5971    1.8344   -0.3420 C   0  0  0  0  0  0  0  0  0  0  0  0
    3.5015    1.6130    0.8731 C   0  0  0  0  0  0  0  0  0  0  0  0
    4.8708    1.4755    0.4849 O   0  0  0  0  0  0  0  0  0  0  0  0
    5.4880    2.7239    0.1950 C   0  0  0  0  0  0  0  0  0  0  0  0
   -0.5506    0.0818    0.2017 N   0  0  0  0  0  0  0  0  0  0  0  0
   -1.2707   -1.0969    0.2174 C   0  0  0  0  0  0  0  0  0  0  0  0
   -2.5151   -1.3325    0.4725 N   0  0  0  0  0  0  0  0  0  0  0  0
   -3.3324   -0.2397    0.7988 C   0  0  0  0  0  0  0  0  0  0  0  0
   -3.4556    0.1403    2.1405 C   0  0  0  0  0  0  0  0  0  0  0  0
   -4.2428    1.2334    2.5014 C   0  0  0  0  0  0  0  0  0  0  0  0
   -4.9209    1.9515    1.5205 C   0  0  0  0  0  0  0  0  0  0  0  0
   -4.8213    1.5705    0.1817 C   0  0  0  0  0  0  0  0  0  0  0  0
   -4.0394    0.4662   -0.1906 C   0  0  0  0  0  0  0  0  0  0  0  0
   -3.9468    0.0685   -1.6368 C   0  0  0  0  0  0  0  0  0  0  0  0
   -0.4259   -2.2172   -0.1198 C   0  0  0  0  0  0  0  0  0  0  0  0
   -0.6156   -3.6002   -0.2523 C   0  0  0  0  0  0  0  0  0  0  0  0
    0.5146   -4.2381   -0.5946 N   0  0  0  0  0  0  0  0  0  0  0  0
    1.4362   -3.2472   -0.6726 N   0  0  0  0  0  0  0  0  0  0  0  0
    2.7934   -3.5809   -1.0242 C   0  0  0  0  0  0  0  0  0  0  0  0
    0.9035   -2.0227   -0.4033 C   0  0  0  0  0  0  0  0  0  0  0  0
    2.4904   -0.6986   -0.5924 H   0  0  0  0  0  0  0  0  0  0  0  0
    2.9464    1.2604   -1.2090 H   0  0  0  0  0  0  0  0  0  0  0  0
    2.6659    2.8824   -0.6560 H   0  0  0  0  0  0  0  0  0  0  0  0
    3.2329    0.6786    1.3771 H   0  0  0  0  0  0  0  0  0  0  0  0
    3.3823    2.4138    1.6127 H   0  0  0  0  0  0  0  0  0  0  0  0
    6.5387    2.5375   -0.0437 H   0  0  0  0  0  0  0  0  0  0  0  0
    5.0181    3.1998   -0.6700 H   0  0  0  0  0  0  0  0  0  0  0  0
    5.4419    3.3871    1.0641 H   0  0  0  0  0  0  0  0  0  0  0  0
   -1.0723    0.9175    0.4242 H   0  0  0  0  0  0  0  0  0  0  0  0
   -2.9325   -0.4246    2.9079 H   0  0  0  0  0  0  0  0  0  0  0  0
   -4.3295    1.5194    3.5462 H   0  0  0  0  0  0  0  0  0  0  0  0
   -5.5366    2.8035    1.7980 H   0  0  0  0  0  0  0  0  0  0  0  0
   -5.3663    2.1362   -0.5710 H   0  0  0  0  0  0  0  0  0  0  0  0
   -4.1295   -1.0047   -1.7541 H   0  0  0  0  0  0  0  0  0  0  0  0
   -4.6939    0.5917   -2.2431 H   0  0  0  0  0  0  0  0  0  0  0  0
   -2.9566    0.3142   -2.0332 H   0  0  0  0  0  0  0  0  0  0  0  0
   -1.5263   -4.1695   -0.1158 H   0  0  0  0  0  0  0  0  0  0  0  0
    3.4592   -2.7594   -0.7519 H   0  0  0  0  0  0  0  0  0  0  0  0
    2.8320   -3.7578   -2.1017 H   0  0  0  0  0  0  0  0  0  0  0  0
    3.0863   -4.4817   -0.4785 H   0  0  0  0  0  0  0  0  0  0  0  0
  1  2  1  0
  2  3  2  3
  3  4  1  0
  4  5  1  0
  5  6  1  0
  6  7  1  0
  2  8  1  0
  8  9  1  0
  9 10  2  3
 10 11  1  0
 11 12  2  0
 12 13  1  0
 13 14  2  0
 14 15  1  0
 15 16  2  0
 16 17  1  0
  9 18  1  0
 18 19  1  0
 19 20  2  0
 20 21  1  0
 21 22  1  0
 21 23  1  0
 23  1  1  0
 16 11  1  0
 23 18  2  0
  1 24  1  0
  4 25  1  0
  4 26  1  0
  5 27  1  0
  5 28  1  0
  7 29  1  0
  7 30  1  0
  7 31  1  0
  8 32  1  0
 12 33  1  0
 13 34  1  0
 14 35  1  0
 15 36  1  0
 17 37  1  0
 17 38  1  0
 17 39  1  0
 19 40  1  0
 22 41  1  0
 22 42  1  0
 22 43  1  0
M  END
>  <ScrubInfo>  (9) 
{"isomerGroup": 0, "isomerId": 8, "confId": 0, "nr_conformers:": 1, "nr_isomers:": 9}

$$$$
