REMARK SMILES CCCCCNc1nc(Nc2ccccc2C)c2cnn(C)c2n1
REMARK SMILES IDX 5 1 4 2 3 3 2 4 1 5 6 6 7 8 8 9 24 10 9 11 23 12 18 13 21 14
REMARK SMILES IDX 19 15 20 16 22 17 10 18 11 20 12 21 16 22 13 23 15 24 14 25
REMARK SMILES IDX 17 26
REMARK H PARENT 6 7 10 19
ROOT
ATOM      1  C   UNL     1       2.984  -0.299   1.248  1.00  0.00     0.116 C 
ENDROOT
BRANCH   1   2
ATOM      2  C   UNL     1       4.145   0.488   1.863  1.00  0.00     0.021 C 
BRANCH   2   3
ATOM      3  C   UNL     1       4.965   1.319   0.868  1.00  0.00     0.002 C 
BRANCH   3   4
ATOM      4  C   UNL     1       5.658   0.477  -0.204  1.00  0.00    -0.003 C 
ATOM      5  C   UNL     1       6.556   1.332  -1.086  1.00  0.00     0.004 C 
ENDBRANCH   3   4
ENDBRANCH   2   3
ENDBRANCH   1   2
BRANCH   1   6
ATOM      6  N   UNL     1       2.030   0.610   0.639  1.00  0.00    -0.354 N 
ATOM      7  H   UNL     1       1.692   1.355   1.239  1.00  0.00     0.163 HD
BRANCH   6   8
ATOM      8  C   UNL     1       0.895   0.002   0.117  1.00  0.00     0.226 A 
ATOM      9  N   UNL     1      -0.232   0.729   0.238  1.00  0.00    -0.195 NA
ATOM     10  N   UNL     1       0.987  -1.212  -0.446  1.00  0.00    -0.193 NA
ATOM     11  C   UNL     1      -1.409   0.245  -0.232  1.00  0.00     0.147 A 
ATOM     12  C   UNL     1      -0.184  -1.653  -0.927  1.00  0.00     0.165 A 
ATOM     13  C   UNL     1      -1.398  -0.999  -0.864  1.00  0.00     0.082 A 
ATOM     14  N   UNL     1      -0.424  -2.828  -1.585  1.00  0.00    -0.250 N 
ATOM     15  C   UNL     1      -2.297  -1.861  -1.524  1.00  0.00     0.149 A 
ATOM     16  N   UNL     1      -1.716  -2.987  -1.956  1.00  0.00    -0.179 NA
ATOM     17  C   UNL     1       0.537  -3.853  -1.907  1.00  0.00     0.176 C 
BRANCH  11  18
ATOM     18  N   UNL     1      -2.539   1.065  -0.089  1.00  0.00    -0.339 N 
ATOM     19  H   UNL     1      -2.239   1.897   0.415  1.00  0.00     0.168 HD
BRANCH  18  20
ATOM     20  C   UNL     1      -3.841   0.685   0.311  1.00  0.00     0.043 A 
ATOM     21  C   UNL     1      -4.066  -0.436   1.125  1.00  0.00     0.026 A 
ATOM     22  C   UNL     1      -4.937   1.503  -0.035  1.00  0.00    -0.028 A 
ATOM     23  C   UNL     1      -5.353  -0.769   1.551  1.00  0.00     0.002 A 
ATOM     24  C   UNL     1      -6.227   1.159   0.401  1.00  0.00     0.005 A 
ATOM     25  C   UNL     1      -6.433   0.026   1.186  1.00  0.00     0.000 A 
ATOM     26  C   UNL     1      -4.749   2.732  -0.884  1.00  0.00     0.046 C 
ENDBRANCH  18  20
ENDBRANCH  11  18
ENDBRANCH   6   8
ENDBRANCH   1   6
TORSDOF 7
