_i0
     RDKit          3D

 48 50  0  0  0  0  0  0  0  0999 V2000
    6.5559    1.3321   -1.0856 C   0  0  0  0  0  0  0  0  0  0  0  0
    5.6576    0.4773   -0.2044 C   0  0  0  0  0  0  0  0  0  0  0  0
    4.9649    1.3192    0.8677 C   0  0  0  0  0  0  0  0  0  0  0  0
    4.1451    0.4885    1.8625 C   0  0  0  0  0  0  0  0  0  0  0  0
    2.9841   -0.2990    1.2484 C   0  0  0  0  0  0  0  0  0  0  0  0
    2.0302    0.6097    0.6390 N   0  0  0  0  0  0  0  0  0  0  0  0
    0.8946    0.0016    0.1166 C   0  0  0  0  0  0  0  0  0  0  0  0
   -0.2319    0.7293    0.2384 N   0  0  0  0  0  0  0  0  0  0  0  0
   -1.4094    0.2455   -0.2315 C   0  0  0  0  0  0  0  0  0  0  0  0
   -2.5393    1.0652   -0.0887 N   0  0  0  0  0  0  0  0  0  0  0  0
   -3.8413    0.6852    0.3114 C   0  0  0  0  0  0  0  0  0  0  0  0
   -4.0661   -0.4358    1.1254 C   0  0  0  0  0  0  0  0  0  0  0  0
   -5.3531   -0.7689    1.5514 C   0  0  0  0  0  0  0  0  0  0  0  0
   -6.4334    0.0264    1.1858 C   0  0  0  0  0  0  0  0  0  0  0  0
   -6.2268    1.1593    0.4007 C   0  0  0  0  0  0  0  0  0  0  0  0
   -4.9368    1.5032   -0.0354 C   0  0  0  0  0  0  0  0  0  0  0  0
   -4.7488    2.7316   -0.8843 C   0  0  0  0  0  0  0  0  0  0  0  0
   -1.3976   -0.9989   -0.8640 C   0  0  0  0  0  0  0  0  0  0  0  0
   -2.2971   -1.8609   -1.5243 C   0  0  0  0  0  0  0  0  0  0  0  0
   -1.7159   -2.9871   -1.9561 N   0  0  0  0  0  0  0  0  0  0  0  0
   -0.4239   -2.8283   -1.5852 N   0  0  0  0  0  0  0  0  0  0  0  0
    0.5370   -3.8526   -1.9074 C   0  0  0  0  0  0  0  0  0  0  0  0
   -0.1840   -1.6531   -0.9274 C   0  0  0  0  0  0  0  0  0  0  0  0
    0.9869   -1.2117   -0.4456 N   0  0  0  0  0  0  0  0  0  0  0  0
    5.9792    2.1107   -1.5950 H   0  0  0  0  0  0  0  0  0  0  0  0
    7.0386    0.7128   -1.8482 H   0  0  0  0  0  0  0  0  0  0  0  0
    7.3404    1.8157   -0.4949 H   0  0  0  0  0  0  0  0  0  0  0  0
    4.9148   -0.0170   -0.8395 H   0  0  0  0  0  0  0  0  0  0  0  0
    6.2593   -0.3075    0.2681 H   0  0  0  0  0  0  0  0  0  0  0  0
    4.3255    2.0716    0.3909 H   0  0  0  0  0  0  0  0  0  0  0  0
    5.7244    1.8725    1.4344 H   0  0  0  0  0  0  0  0  0  0  0  0
    4.8126   -0.2141    2.3765 H   0  0  0  0  0  0  0  0  0  0  0  0
    3.7520    1.1652    2.6321 H   0  0  0  0  0  0  0  0  0  0  0  0
    3.3717   -1.0181    0.5178 H   0  0  0  0  0  0  0  0  0  0  0  0
    2.4966   -0.8720    2.0477 H   0  0  0  0  0  0  0  0  0  0  0  0
    1.6923    1.3547    1.2389 H   0  0  0  0  0  0  0  0  0  0  0  0
   -2.2394    1.8971    0.4152 H   0  0  0  0  0  0  0  0  0  0  0  0
   -3.2382   -1.0596    1.4526 H   0  0  0  0  0  0  0  0  0  0  0  0
   -5.5081   -1.6453    2.1753 H   0  0  0  0  0  0  0  0  0  0  0  0
   -7.4362   -0.2304    1.5173 H   0  0  0  0  0  0  0  0  0  0  0  0
   -7.0813    1.7753    0.1292 H   0  0  0  0  0  0  0  0  0  0  0  0
   -4.3039    2.4632   -1.8480 H   0  0  0  0  0  0  0  0  0  0  0  0
   -5.7029    3.2289   -1.0890 H   0  0  0  0  0  0  0  0  0  0  0  0
   -4.1034    3.4521   -0.3716 H   0  0  0  0  0  0  0  0  0  0  0  0
   -3.3544   -1.7128   -1.7053 H   0  0  0  0  0  0  0  0  0  0  0  0
    0.5816   -3.9519   -2.9949 H   0  0  0  0  0  0  0  0  0  0  0  0
    1.5208   -3.5795   -1.5195 H   0  0  0  0  0  0  0  0  0  0  0  0
    0.2071   -4.7895   -1.4514 H   0  0  0  0  0  0  0  0  0  0  0  0
  1  2  1  0
  2  3  1  0
  3  4  1  0
  4  5  1  0
  5  6  1  0
  6  7  1  0
  7  8  2  0
  8  9  1  0
  9 10  1  0
 10 11  1  0
 11 12  2  0
 12 13  1  0
 13 14  2  0
 14 15  1  0
 15 16  2  0
 16 17  1  0
  9 18  2  0
 18 19  1  0
 19 20  2  0
 20 21  1  0
 21 22  1  0
 21 23  1  0
 23 24  2  0
 24  7  1  0
 16 11  1  0
 23 18  1  0
  1 25  1  0
  1 26  1  0
  1 27  1  0
  2 28  1  0
  2 29  1  0
  3 30  1  0
  3 31  1  0
  4 32  1  0
  4 33  1  0
  5 34  1  0
  5 35  1  0
  6 36  1  0
 10 37  1  0
 12 38  1  0
 13 39  1  0
 14 40  1  0
 15 41  1  0
 17 42  1  0
 17 43  1  0
 17 44  1  0
 19 45  1  0
 22 46  1  0
 22 47  1  0
 22 48  1  0
M  END
>  <ScrubInfo>  (1) 
{"isomerGroup": 0, "isomerId": 0, "confId": 0, "nr_conformers:": 1, "nr_isomers:": 9}

$$$$
_i1
     RDKit          3D

 48 50  0  0  0  0  0  0  0  0999 V2000
   -0.5269   -0.8763   -0.1604 N   0  0  0  0  0  0  0  0  0  0  0  0
   -1.8533   -1.2681   -0.1054 C   0  0  0  0  0  0  0  0  0  0  0  0
   -2.8930   -0.3585   -0.1674 N   0  0  0  0  0  0  0  0  0  0  0  0
   -2.9226    0.9710    0.3121 C   0  0  0  0  0  0  0  0  0  0  0  0
   -2.0426    1.4217    1.3097 C   0  0  0  0  0  0  0  0  0  0  0  0
   -2.0654    2.7458    1.7523 C   0  0  0  0  0  0  0  0  0  0  0  0
   -2.9682    3.6463    1.2006 C   0  0  0  0  0  0  0  0  0  0  0  0
   -3.8481    3.2233    0.2068 C   0  0  0  0  0  0  0  0  0  0  0  0
   -3.8321    1.8940   -0.2501 C   0  0  0  0  0  0  0  0  0  0  0  0
   -4.7888    1.4906   -1.3403 C   0  0  0  0  0  0  0  0  0  0  0  0
   -2.0502   -2.5897   -0.0357 C   0  0  0  0  0  0  0  0  0  0  0  0
   -3.1787   -3.5216    0.0634 C   0  0  0  0  0  0  0  0  0  0  0  0
   -2.8071   -4.7733    0.1512 N   0  0  0  0  0  0  0  0  0  0  0  0
   -1.4056   -4.7501    0.0668 N   0  0  0  0  0  0  0  0  0  0  0  0
   -0.6585   -5.9327    0.4199 C   0  0  0  0  0  0  0  0  0  0  0  0
   -0.8668   -3.4752   -0.0009 C   0  0  0  0  0  0  0  0  0  0  0  0
    0.3616   -3.0882   -0.0244 N   0  0  0  0  0  0  0  0  0  0  0  0
    0.5538   -1.7274   -0.1258 C   0  0  0  0  0  0  0  0  0  0  0  0
    1.7931   -1.3900   -0.1849 N   0  0  0  0  0  0  0  0  0  0  0  0
    2.1348    0.0224   -0.2893 C   0  0  0  0  0  0  0  0  0  0  0  0
    3.6577    0.1472   -0.2907 C   0  0  0  0  0  0  0  0  0  0  0  0
    4.0983    1.6073   -0.3981 C   0  0  0  0  0  0  0  0  0  0  0  0
    5.6218    1.7297   -0.3990 C   0  0  0  0  0  0  0  0  0  0  0  0
    6.0639    3.1805   -0.5057 C   0  0  0  0  0  0  0  0  0  0  0  0
   -0.3753    0.1037   -0.3408 H   0  0  0  0  0  0  0  0  0  0  0  0
   -3.8224   -0.7509   -0.2763 H   0  0  0  0  0  0  0  0  0  0  0  0
   -1.3478    0.7366    1.7895 H   0  0  0  0  0  0  0  0  0  0  0  0
   -1.3832    3.0685    2.5348 H   0  0  0  0  0  0  0  0  0  0  0  0
   -2.9900    4.6772    1.5448 H   0  0  0  0  0  0  0  0  0  0  0  0
   -4.5467    3.9423   -0.2164 H   0  0  0  0  0  0  0  0  0  0  0  0
   -4.2447    1.0527   -2.1835 H   0  0  0  0  0  0  0  0  0  0  0  0
   -5.3477    2.3504   -1.7249 H   0  0  0  0  0  0  0  0  0  0  0  0
   -5.5143    0.7661   -0.9570 H   0  0  0  0  0  0  0  0  0  0  0  0
   -4.2144   -3.1601    0.0833 H   0  0  0  0  0  0  0  0  0  0  0  0
   -1.1994   -6.8366    0.1214 H   0  0  0  0  0  0  0  0  0  0  0  0
    0.3140   -5.9451   -0.0825 H   0  0  0  0  0  0  0  0  0  0  0  0
   -0.4931   -5.9696    1.5011 H   0  0  0  0  0  0  0  0  0  0  0  0
    1.7347    0.4458   -1.2183 H   0  0  0  0  0  0  0  0  0  0  0  0
    1.7256    0.5830    0.5599 H   0  0  0  0  0  0  0  0  0  0  0  0
    4.0629   -0.2966    0.6274 H   0  0  0  0  0  0  0  0  0  0  0  0
    4.0723   -0.4287   -1.1277 H   0  0  0  0  0  0  0  0  0  0  0  0
    3.6939    2.0464   -1.3183 H   0  0  0  0  0  0  0  0  0  0  0  0
    3.6843    2.1788    0.4415 H   0  0  0  0  0  0  0  0  0  0  0  0
    6.0309    1.2959    0.5208 H   0  0  0  0  0  0  0  0  0  0  0  0
    6.0406    1.1636   -1.2392 H   0  0  0  0  0  0  0  0  0  0  0  0
    5.6978    3.6352   -1.4317 H   0  0  0  0  0  0  0  0  0  0  0  0
    7.1565    3.2448   -0.5045 H   0  0  0  0  0  0  0  0  0  0  0  0
    5.6882    3.7682    0.3380 H   0  0  0  0  0  0  0  0  0  0  0  0
  1  2  1  0
  2  3  1  0
  3  4  1  0
  4  5  2  0
  5  6  1  0
  6  7  2  0
  7  8  1  0
  8  9  2  0
  9 10  1  0
  2 11  2  0
 11 12  1  0
 12 13  2  0
 13 14  1  0
 14 15  1  0
 14 16  1  0
 16 17  2  0
 17 18  1  0
 18 19  2  3
 19 20  1  0
 20 21  1  0
 21 22  1  0
 22 23  1  0
 23 24  1  0
 18  1  1  0
  9  4  1  0
 16 11  1  0
  1 25  1  0
  3 26  1  0
  5 27  1  0
  6 28  1  0
  7 29  1  0
  8 30  1  0
 10 31  1  0
 10 32  1  0
 10 33  1  0
 12 34  1  0
 15 35  1  0
 15 36  1  0
 15 37  1  0
 20 38  1  0
 20 39  1  0
 21 40  1  0
 21 41  1  0
 22 42  1  0
 22 43  1  0
 23 44  1  0
 23 45  1  0
 24 46  1  0
 24 47  1  0
 24 48  1  0
M  END
>  <ScrubInfo>  (2) 
{"isomerGroup": 0, "isomerId": 1, "confId": 0, "nr_conformers:": 1, "nr_isomers:": 9}

$$$$
_i2
     RDKit          3D

 48 50  0  0  0  0  0  0  0  0999 V2000
   -0.8365   -0.2589    0.0892 N   0  0  0  0  0  0  0  0  0  0  0  0
    0.3776   -0.7520   -0.3290 C   0  0  0  0  0  0  0  0  0  0  0  0
    1.2597    0.1549   -0.8437 N   0  0  0  0  0  0  0  0  0  0  0  0
    1.4673    1.4811   -0.2842 C   0  0  0  0  0  0  0  0  0  0  0  0
    2.7094    2.1453   -0.8830 C   0  0  0  0  0  0  0  0  0  0  0  0
    4.0045    1.8953   -0.0995 C   0  0  0  0  0  0  0  0  0  0  0  0
    4.4496    0.4344   -0.0628 C   0  0  0  0  0  0  0  0  0  0  0  0
    5.8101    0.2856    0.6018 C   0  0  0  0  0  0  0  0  0  0  0  0
    0.7228   -2.0158   -0.2688 N   0  0  0  0  0  0  0  0  0  0  0  0
   -0.2686   -2.7775    0.2748 C   0  0  0  0  0  0  0  0  0  0  0  0
   -1.5111   -2.3685    0.7186 C   0  0  0  0  0  0  0  0  0  0  0  0
   -2.1420   -3.5309    1.1808 C   0  0  0  0  0  0  0  0  0  0  0  0
   -1.3649   -4.6147    1.0506 N   0  0  0  0  0  0  0  0  0  0  0  0
   -0.2285   -4.1269    0.4920 N   0  0  0  0  0  0  0  0  0  0  0  0
    0.8556   -5.0286    0.1956 C   0  0  0  0  0  0  0  0  0  0  0  0
   -1.8830   -0.9808    0.6224 C   0  0  0  0  0  0  0  0  0  0  0  0
   -3.0621   -0.6206    1.0069 N   0  0  0  0  0  0  0  0  0  0  0  0
   -3.3916    0.7387    0.8945 C   0  0  0  0  0  0  0  0  0  0  0  0
   -3.1146    1.5965    1.9657 C   0  0  0  0  0  0  0  0  0  0  0  0
   -3.4026    2.9582    1.8802 C   0  0  0  0  0  0  0  0  0  0  0  0
   -3.9781    3.4720    0.7214 C   0  0  0  0  0  0  0  0  0  0  0  0
   -4.2766    2.6236   -0.3458 C   0  0  0  0  0  0  0  0  0  0  0  0
   -3.9998    1.2502   -0.2655 C   0  0  0  0  0  0  0  0  0  0  0  0
   -4.3336    0.3501   -1.4220 C   0  0  0  0  0  0  0  0  0  0  0  0
   -1.0427    0.6984   -0.1396 H   0  0  0  0  0  0  0  0  0  0  0  0
    2.1239   -0.3257   -1.0804 H   0  0  0  0  0  0  0  0  0  0  0  0
    1.5424    1.4326    0.8082 H   0  0  0  0  0  0  0  0  0  0  0  0
    0.5966    2.0998   -0.5297 H   0  0  0  0  0  0  0  0  0  0  0  0
    2.5431    3.2304   -0.8818 H   0  0  0  0  0  0  0  0  0  0  0  0
    2.8435    1.8516   -1.9313 H   0  0  0  0  0  0  0  0  0  0  0  0
    3.8855    2.2668    0.9259 H   0  0  0  0  0  0  0  0  0  0  0  0
    4.7974    2.4994   -0.5585 H   0  0  0  0  0  0  0  0  0  0  0  0
    4.5028    0.0332   -1.0811 H   0  0  0  0  0  0  0  0  0  0  0  0
    3.7249   -0.1682    0.4951 H   0  0  0  0  0  0  0  0  0  0  0  0
    6.1071   -0.7676    0.6249 H   0  0  0  0  0  0  0  0  0  0  0  0
    5.7857    0.6548    1.6320 H   0  0  0  0  0  0  0  0  0  0  0  0
    6.5775    0.8426    0.0547 H   0  0  0  0  0  0  0  0  0  0  0  0
   -3.1319   -3.6353    1.6056 H   0  0  0  0  0  0  0  0  0  0  0  0
    1.1726   -5.5030    1.1278 H   0  0  0  0  0  0  0  0  0  0  0  0
    0.4942   -5.7796   -0.5114 H   0  0  0  0  0  0  0  0  0  0  0  0
    1.6920   -4.4802   -0.2429 H   0  0  0  0  0  0  0  0  0  0  0  0
   -2.6741    1.1933    2.8742 H   0  0  0  0  0  0  0  0  0  0  0  0
   -3.1863    3.6134    2.7198 H   0  0  0  0  0  0  0  0  0  0  0  0
   -4.2092    4.5323    0.6527 H   0  0  0  0  0  0  0  0  0  0  0  0
   -4.7396    3.0391   -1.2384 H   0  0  0  0  0  0  0  0  0  0  0  0
   -4.9651    0.8617   -2.1561 H   0  0  0  0  0  0  0  0  0  0  0  0
   -4.8860   -0.5305   -1.0782 H   0  0  0  0  0  0  0  0  0  0  0  0
   -3.4174    0.0302   -1.9280 H   0  0  0  0  0  0  0  0  0  0  0  0
  1  2  1  0
  2  3  1  0
  3  4  1  0
  4  5  1  0
  5  6  1  0
  6  7  1  0
  7  8  1  0
  2  9  2  0
  9 10  1  0
 10 11  2  0
 11 12  1  0
 12 13  2  0
 13 14  1  0
 14 15  1  0
 11 16  1  0
 16 17  2  3
 17 18  1  0
 18 19  2  0
 19 20  1  0
 20 21  2  0
 21 22  1  0
 22 23  2  0
 23 24  1  0
 16  1  1  0
 23 18  1  0
 14 10  1  0
  1 25  1  0
  3 26  1  0
  4 27  1  0
  4 28  1  0
  5 29  1  0
  5 30  1  0
  6 31  1  0
  6 32  1  0
  7 33  1  0
  7 34  1  0
  8 35  1  0
  8 36  1  0
  8 37  1  0
 12 38  1  0
 15 39  1  0
 15 40  1  0
 15 41  1  0
 19 42  1  0
 20 43  1  0
 21 44  1  0
 22 45  1  0
 24 46  1  0
 24 47  1  0
 24 48  1  0
M  END
>  <ScrubInfo>  (3) 
{"isomerGroup": 0, "isomerId": 2, "confId": 0, "nr_conformers:": 1, "nr_isomers:": 9}

$$$$
_i3
     RDKit          3D

 48 50  0  0  0  0  0  0  0  0999 V2000
    0.7742   -1.0361   -0.4869 N   0  0  0  0  0  0  0  0  0  0  0  0
    0.1520    0.1992   -0.4038 C   0  0  0  0  0  0  0  0  0  0  0  0
    0.7339    1.3450   -0.4018 N   0  0  0  0  0  0  0  0  0  0  0  0
    2.1806    1.4610   -0.5210 C   0  0  0  0  0  0  0  0  0  0  0  0
    2.8243    1.3607    0.8612 C   0  0  0  0  0  0  0  0  0  0  0  0
    4.3376    1.5889    0.8450 C   0  0  0  0  0  0  0  0  0  0  0  0
    5.1067    0.4835    0.1201 C   0  0  0  0  0  0  0  0  0  0  0  0
    6.6096    0.6920    0.2275 C   0  0  0  0  0  0  0  0  0  0  0  0
   -1.2264    0.2961   -0.3043 N   0  0  0  0  0  0  0  0  0  0  0  0
   -1.9684   -0.7707   -0.2558 C   0  0  0  0  0  0  0  0  0  0  0  0
   -3.3418   -0.8433   -0.1687 N   0  0  0  0  0  0  0  0  0  0  0  0
   -4.1999    0.2794   -0.2170 C   0  0  0  0  0  0  0  0  0  0  0  0
   -5.1441    0.3417   -1.2597 C   0  0  0  0  0  0  0  0  0  0  0  0
   -5.9880    1.4431   -1.4097 C   0  0  0  0  0  0  0  0  0  0  0  0
   -5.8958    2.5089   -0.5239 C   0  0  0  0  0  0  0  0  0  0  0  0
   -4.9669    2.4670    0.5142 C   0  0  0  0  0  0  0  0  0  0  0  0
   -4.1215    1.3552    0.6891 C   0  0  0  0  0  0  0  0  0  0  0  0
   -3.1653    1.3811    1.8511 C   0  0  0  0  0  0  0  0  0  0  0  0
   -1.3447   -2.0782   -0.3040 C   0  0  0  0  0  0  0  0  0  0  0  0
   -1.7438   -3.4230   -0.2378 C   0  0  0  0  0  0  0  0  0  0  0  0
   -0.7075   -4.2697   -0.3341 N   0  0  0  0  0  0  0  0  0  0  0  0
    0.3696   -3.4534   -0.4428 N   0  0  0  0  0  0  0  0  0  0  0  0
    1.6827   -4.0359   -0.5536 C   0  0  0  0  0  0  0  0  0  0  0  0
    0.0158   -2.1421   -0.4235 C   0  0  0  0  0  0  0  0  0  0  0  0
    1.7814   -1.0458   -0.5166 H   0  0  0  0  0  0  0  0  0  0  0  0
    2.4035    2.4432   -0.9540 H   0  0  0  0  0  0  0  0  0  0  0  0
    2.5911    0.7277   -1.2225 H   0  0  0  0  0  0  0  0  0  0  0  0
    2.3680    2.1110    1.5197 H   0  0  0  0  0  0  0  0  0  0  0  0
    2.6052    0.3857    1.3129 H   0  0  0  0  0  0  0  0  0  0  0  0
    4.5600    2.5598    0.3858 H   0  0  0  0  0  0  0  0  0  0  0  0
    4.6859    1.6441    1.8839 H   0  0  0  0  0  0  0  0  0  0  0  0
    4.8321    0.4590   -0.9397 H   0  0  0  0  0  0  0  0  0  0  0  0
    4.8480   -0.4925    0.5469 H   0  0  0  0  0  0  0  0  0  0  0  0
    6.9337    0.6826    1.2731 H   0  0  0  0  0  0  0  0  0  0  0  0
    6.9055    1.6481   -0.2160 H   0  0  0  0  0  0  0  0  0  0  0  0
    7.1415   -0.1063   -0.2996 H   0  0  0  0  0  0  0  0  0  0  0  0
   -3.7597   -1.6580   -0.5974 H   0  0  0  0  0  0  0  0  0  0  0  0
   -5.2154   -0.4650   -1.9848 H   0  0  0  0  0  0  0  0  0  0  0  0
   -6.7038    1.4742   -2.2265 H   0  0  0  0  0  0  0  0  0  0  0  0
   -6.5402    3.3759   -0.6417 H   0  0  0  0  0  0  0  0  0  0  0  0
   -4.9014    3.3113    1.1978 H   0  0  0  0  0  0  0  0  0  0  0  0
   -3.6248    1.8791    2.7125 H   0  0  0  0  0  0  0  0  0  0  0  0
   -2.9019    0.3731    2.1851 H   0  0  0  0  0  0  0  0  0  0  0  0
   -2.2559    1.9271    1.5841 H   0  0  0  0  0  0  0  0  0  0  0  0
   -2.7368   -3.8365   -0.1208 H   0  0  0  0  0  0  0  0  0  0  0  0
    1.8949   -4.5818    0.3691 H   0  0  0  0  0  0  0  0  0  0  0  0
    1.6883   -4.7151   -1.4099 H   0  0  0  0  0  0  0  0  0  0  0  0
    2.4277   -3.2513   -0.7012 H   0  0  0  0  0  0  0  0  0  0  0  0
  1  2  1  0
  2  3  2  3
  3  4  1  0
  4  5  1  0
  5  6  1  0
  6  7  1  0
  7  8  1  0
  2  9  1  0
  9 10  2  0
 10 11  1  0
 11 12  1  0
 12 13  2  0
 13 14  1  0
 14 15  2  0
 15 16  1  0
 16 17  2  0
 17 18  1  0
 10 19  1  0
 19 20  1  0
 20 21  2  0
 21 22  1  0
 22 23  1  0
 22 24  1  0
 24  1  1  0
 17 12  1  0
 24 19  2  0
  1 25  1  0
  4 26  1  0
  4 27  1  0
  5 28  1  0
  5 29  1  0
  6 30  1  0
  6 31  1  0
  7 32  1  0
  7 33  1  0
  8 34  1  0
  8 35  1  0
  8 36  1  0
 11 37  1  0
 13 38  1  0
 14 39  1  0
 15 40  1  0
 16 41  1  0
 18 42  1  0
 18 43  1  0
 18 44  1  0
 20 45  1  0
 23 46  1  0
 23 47  1  0
 23 48  1  0
M  END
>  <ScrubInfo>  (4) 
{"isomerGroup": 0, "isomerId": 3, "confId": 0, "nr_conformers:": 1, "nr_isomers:": 9}

$$$$
_i4
     RDKit          3D

 48 50  0  0  0  0  0  0  0  0999 V2000
    0.2957    3.6448    2.0707 N   0  0  0  0  0  0  0  0  0  0  0  0
   -0.6676    2.6494    1.9409 C   0  0  0  0  0  0  0  0  0  0  0  0
   -0.4837    1.8623    0.8697 C   0  0  0  0  0  0  0  0  0  0  0  0
   -1.0873    0.6951    0.2398 C   0  0  0  0  0  0  0  0  0  0  0  0
   -2.1488    0.0264    0.5471 N   0  0  0  0  0  0  0  0  0  0  0  0
   -2.9362    0.4017    1.6409 C   0  0  0  0  0  0  0  0  0  0  0  0
   -3.9766    1.3192    1.4486 C   0  0  0  0  0  0  0  0  0  0  0  0
   -4.7859    1.7128    2.5141 C   0  0  0  0  0  0  0  0  0  0  0  0
   -4.5685    1.1796    3.7816 C   0  0  0  0  0  0  0  0  0  0  0  0
   -3.5522    0.2438    3.9808 C   0  0  0  0  0  0  0  0  0  0  0  0
   -2.7381   -0.1649    2.9129 C   0  0  0  0  0  0  0  0  0  0  0  0
   -1.6577   -1.1843    3.1402 C   0  0  0  0  0  0  0  0  0  0  0  0
   -0.3983    0.2385   -0.8515 N   0  0  0  0  0  0  0  0  0  0  0  0
    0.6676    0.8116   -1.3184 C   0  0  0  0  0  0  0  0  0  0  0  0
    1.3117    0.3056   -2.4100 N   0  0  0  0  0  0  0  0  0  0  0  0
    1.1231   -1.0439   -2.8983 C   0  0  0  0  0  0  0  0  0  0  0  0
    1.9132   -2.0369   -2.0459 C   0  0  0  0  0  0  0  0  0  0  0  0
    1.6865   -3.4975   -2.4464 C   0  0  0  0  0  0  0  0  0  0  0  0
    2.0749   -3.8607   -3.8815 C   0  0  0  0  0  0  0  0  0  0  0  0
    3.5426   -3.6158   -4.1944 C   0  0  0  0  0  0  0  0  0  0  0  0
    1.2535    1.9356   -0.8015 N   0  0  0  0  0  0  0  0  0  0  0  0
    0.7050    2.4631    0.2367 C   0  0  0  0  0  0  0  0  0  0  0  0
    1.0931    3.6072    0.9362 N   0  0  0  0  0  0  0  0  0  0  0  0
    2.4902    3.9802    1.0428 C   0  0  0  0  0  0  0  0  0  0  0  0
   -0.0991    4.5563    2.3138 H   0  0  0  0  0  0  0  0  0  0  0  0
   -1.4509    2.5962    2.6828 H   0  0  0  0  0  0  0  0  0  0  0  0
   -4.1551    1.7232    0.4552 H   0  0  0  0  0  0  0  0  0  0  0  0
   -5.5894    2.4258    2.3509 H   0  0  0  0  0  0  0  0  0  0  0  0
   -5.2004    1.4797    4.6137 H   0  0  0  0  0  0  0  0  0  0  0  0
   -3.4064   -0.1761    4.9736 H   0  0  0  0  0  0  0  0  0  0  0  0
   -0.6720   -0.7153    3.0602 H   0  0  0  0  0  0  0  0  0  0  0  0
   -1.7369   -1.6347    4.1353 H   0  0  0  0  0  0  0  0  0  0  0  0
   -1.7350   -1.9961    2.4096 H   0  0  0  0  0  0  0  0  0  0  0  0
    2.2286    0.7097   -2.5468 H   0  0  0  0  0  0  0  0  0  0  0  0
    1.4749   -1.0760   -3.9346 H   0  0  0  0  0  0  0  0  0  0  0  0
    0.0592   -1.3065   -2.9179 H   0  0  0  0  0  0  0  0  0  0  0  0
    2.9819   -1.7943   -2.0860 H   0  0  0  0  0  0  0  0  0  0  0  0
    1.6228   -1.9275   -0.9931 H   0  0  0  0  0  0  0  0  0  0  0  0
    0.6277   -3.7451   -2.3001 H   0  0  0  0  0  0  0  0  0  0  0  0
    2.2497   -4.1367   -1.7548 H   0  0  0  0  0  0  0  0  0  0  0  0
    1.8588   -4.9247   -4.0370 H   0  0  0  0  0  0  0  0  0  0  0  0
    1.4514   -3.3128   -4.5964 H   0  0  0  0  0  0  0  0  0  0  0  0
    4.1889   -4.1340   -3.4791 H   0  0  0  0  0  0  0  0  0  0  0  0
    3.7848   -2.5492   -4.1716 H   0  0  0  0  0  0  0  0  0  0  0  0
    3.7800   -3.9875   -5.1964 H   0  0  0  0  0  0  0  0  0  0  0  0
    2.9407    4.0753    0.0497 H   0  0  0  0  0  0  0  0  0  0  0  0
    2.5889    4.9465    1.5479 H   0  0  0  0  0  0  0  0  0  0  0  0
    3.0508    3.2312    1.6120 H   0  0  0  0  0  0  0  0  0  0  0  0
  1  2  1  0
  2  3  2  0
  3  4  1  0
  4  5  2  3
  5  6  1  0
  6  7  2  0
  7  8  1  0
  8  9  2  0
  9 10  1  0
 10 11  2  0
 11 12  1  0
  4 13  1  0
 13 14  2  0
 14 15  1  0
 15 16  1  0
 16 17  1  0
 17 18  1  0
 18 19  1  0
 19 20  1  0
 14 21  1  0
 21 22  2  0
 22 23  1  0
 23 24  1  0
 23  1  1  0
 22  3  1  0
 11  6  1  0
  1 25  1  0
  2 26  1  0
  7 27  1  0
  8 28  1  0
  9 29  1  0
 10 30  1  0
 12 31  1  0
 12 32  1  0
 12 33  1  0
 15 34  1  0
 16 35  1  0
 16 36  1  0
 17 37  1  0
 17 38  1  0
 18 39  1  0
 18 40  1  0
 19 41  1  0
 19 42  1  0
 20 43  1  0
 20 44  1  0
 20 45  1  0
 24 46  1  0
 24 47  1  0
 24 48  1  0
M  END
>  <ScrubInfo>  (5) 
{"isomerGroup": 0, "isomerId": 4, "confId": 0, "nr_conformers:": 1, "nr_isomers:": 9}

$$$$
_i5
     RDKit          3D

 48 50  0  0  0  0  0  0  0  0999 V2000
    0.2895   -0.9625    0.8964 N   0  0  0  0  0  0  0  0  0  0  0  0
    0.6347    0.2812    0.4320 C   0  0  0  0  0  0  0  0  0  0  0  0
    1.9763    0.4983    0.2941 N   0  0  0  0  0  0  0  0  0  0  0  0
    2.8081   -0.3883   -0.5102 C   0  0  0  0  0  0  0  0  0  0  0  0
    4.2537    0.1097   -0.4900 C   0  0  0  0  0  0  0  0  0  0  0  0
    5.1654   -0.8011   -1.3144 C   0  0  0  0  0  0  0  0  0  0  0  0
    6.6040   -0.2894   -1.4144 C   0  0  0  0  0  0  0  0  0  0  0  0
    7.3383   -0.2775   -0.0826 C   0  0  0  0  0  0  0  0  0  0  0  0
   -0.1973    1.2397    0.1421 N   0  0  0  0  0  0  0  0  0  0  0  0
   -1.5658    1.0352    0.2824 C   0  0  0  0  0  0  0  0  0  0  0  0
   -2.3238    2.0212   -0.0790 N   0  0  0  0  0  0  0  0  0  0  0  0
   -3.7173    1.9657    0.0038 C   0  0  0  0  0  0  0  0  0  0  0  0
   -4.3469    2.4348    1.1636 C   0  0  0  0  0  0  0  0  0  0  0  0
   -5.7366    2.4113    1.2795 C   0  0  0  0  0  0  0  0  0  0  0  0
   -6.5105    1.9310    0.2268 C   0  0  0  0  0  0  0  0  0  0  0  0
   -5.8968    1.4886   -0.9460 C   0  0  0  0  0  0  0  0  0  0  0  0
   -4.4994    1.5172   -1.0761 C   0  0  0  0  0  0  0  0  0  0  0  0
   -3.8567    1.0483   -2.3508 C   0  0  0  0  0  0  0  0  0  0  0  0
   -1.9787   -0.2540    0.8149 C   0  0  0  0  0  0  0  0  0  0  0  0
   -3.1764   -0.8993    1.1735 C   0  0  0  0  0  0  0  0  0  0  0  0
   -2.9788   -2.1384    1.6533 N   0  0  0  0  0  0  0  0  0  0  0  0
   -1.6368   -2.2917    1.6019 N   0  0  0  0  0  0  0  0  0  0  0  0
   -1.0565   -3.5322    2.0484 C   0  0  0  0  0  0  0  0  0  0  0  0
   -1.0183   -1.1920    1.1007 C   0  0  0  0  0  0  0  0  0  0  0  0
    1.0311   -1.5253    1.2896 H   0  0  0  0  0  0  0  0  0  0  0  0
    2.0932    1.4661   -0.0064 H   0  0  0  0  0  0  0  0  0  0  0  0
    2.4314   -0.4094   -1.5394 H   0  0  0  0  0  0  0  0  0  0  0  0
    2.7699   -1.4096   -0.1154 H   0  0  0  0  0  0  0  0  0  0  0  0
    4.2975    1.1322   -0.8854 H   0  0  0  0  0  0  0  0  0  0  0  0
    4.6026    0.1559    0.5482 H   0  0  0  0  0  0  0  0  0  0  0  0
    4.7615   -0.8872   -2.3308 H   0  0  0  0  0  0  0  0  0  0  0  0
    5.1637   -1.8114   -0.8874 H   0  0  0  0  0  0  0  0  0  0  0  0
    6.6126    0.7188   -1.8448 H   0  0  0  0  0  0  0  0  0  0  0  0
    7.1543   -0.9350   -2.1092 H   0  0  0  0  0  0  0  0  0  0  0  0
    6.8995    0.4452    0.6114 H   0  0  0  0  0  0  0  0  0  0  0  0
    7.3176   -1.2661    0.3867 H   0  0  0  0  0  0  0  0  0  0  0  0
    8.3855    0.0036   -0.2341 H   0  0  0  0  0  0  0  0  0  0  0  0
   -3.7428    2.8205    1.9808 H   0  0  0  0  0  0  0  0  0  0  0  0
   -6.2118    2.7718    2.1877 H   0  0  0  0  0  0  0  0  0  0  0  0
   -7.5939    1.9111    0.3132 H   0  0  0  0  0  0  0  0  0  0  0  0
   -6.5167    1.1290   -1.7643 H   0  0  0  0  0  0  0  0  0  0  0  0
   -4.5993    0.9075   -3.1434 H   0  0  0  0  0  0  0  0  0  0  0  0
   -3.1341    1.7868   -2.7128 H   0  0  0  0  0  0  0  0  0  0  0  0
   -3.3496    0.0920   -2.1894 H   0  0  0  0  0  0  0  0  0  0  0  0
   -4.1936   -0.5363    1.1185 H   0  0  0  0  0  0  0  0  0  0  0  0
   -1.5622   -4.3561    1.5383 H   0  0  0  0  0  0  0  0  0  0  0  0
    0.0089   -3.5528    1.8094 H   0  0  0  0  0  0  0  0  0  0  0  0
   -1.1986   -3.6070    3.1293 H   0  0  0  0  0  0  0  0  0  0  0  0
  1  2  1  0
  2  3  1  0
  3  4  1  0
  4  5  1  0
  5  6  1  0
  6  7  1  0
  7  8  1  0
  2  9  2  0
  9 10  1  0
 10 11  2  3
 11 12  1  0
 12 13  2  0
 13 14  1  0
 14 15  2  0
 15 16  1  0
 16 17  2  0
 17 18  1  0
 10 19  1  0
 19 20  1  0
 20 21  2  0
 21 22  1  0
 22 23  1  0
 22 24  1  0
 24  1  1  0
 17 12  1  0
 24 19  2  0
  1 25  1  0
  3 26  1  0
  4 27  1  0
  4 28  1  0
  5 29  1  0
  5 30  1  0
  6 31  1  0
  6 32  1  0
  7 33  1  0
  7 34  1  0
  8 35  1  0
  8 36  1  0
  8 37  1  0
 13 38  1  0
 14 39  1  0
 15 40  1  0
 16 41  1  0
 18 42  1  0
 18 43  1  0
 18 44  1  0
 20 45  1  0
 23 46  1  0
 23 47  1  0
 23 48  1  0
M  END
>  <ScrubInfo>  (6) 
{"isomerGroup": 0, "isomerId": 5, "confId": 0, "nr_conformers:": 1, "nr_isomers:": 9}

$$$$
_i6
     RDKit          3D

 48 50  0  0  0  0  0  0  0  0999 V2000
   -1.0687    4.0113    0.1310 N   0  0  0  0  0  0  0  0  0  0  0  0
   -1.9432    2.9371    0.2564 C   0  0  0  0  0  0  0  0  0  0  0  0
   -1.3972    1.7712   -0.1174 C   0  0  0  0  0  0  0  0  0  0  0  0
   -1.7740    0.3549   -0.1861 C   0  0  0  0  0  0  0  0  0  0  0  0
   -3.0504   -0.0172    0.1979 N   0  0  0  0  0  0  0  0  0  0  0  0
   -3.7028   -1.2679    0.1079 C   0  0  0  0  0  0  0  0  0  0  0  0
   -3.1670   -2.3540   -0.5999 C   0  0  0  0  0  0  0  0  0  0  0  0
   -3.8197   -3.5893   -0.6564 C   0  0  0  0  0  0  0  0  0  0  0  0
   -5.0262   -3.7706    0.0043 C   0  0  0  0  0  0  0  0  0  0  0  0
   -5.5770   -2.7174    0.7274 C   0  0  0  0  0  0  0  0  0  0  0  0
   -4.9268   -1.4704    0.7958 C   0  0  0  0  0  0  0  0  0  0  0  0
   -5.5724   -0.3822    1.6135 C   0  0  0  0  0  0  0  0  0  0  0  0
   -0.8571   -0.4729   -0.5947 N   0  0  0  0  0  0  0  0  0  0  0  0
    0.3938   -0.0168   -0.9408 C   0  0  0  0  0  0  0  0  0  0  0  0
    1.2121   -0.9537   -1.2649 N   0  0  0  0  0  0  0  0  0  0  0  0
    2.5726   -0.6111   -1.6691 C   0  0  0  0  0  0  0  0  0  0  0  0
    3.4865   -0.5859   -0.4439 C   0  0  0  0  0  0  0  0  0  0  0  0
    4.9330   -0.2815   -0.8373 C   0  0  0  0  0  0  0  0  0  0  0  0
    5.8706   -0.1390    0.3634 C   0  0  0  0  0  0  0  0  0  0  0  0
    6.0500   -1.4279    1.1504 C   0  0  0  0  0  0  0  0  0  0  0  0
    0.8131    1.2934   -0.9637 N   0  0  0  0  0  0  0  0  0  0  0  0
   -0.0495    2.1663   -0.5788 C   0  0  0  0  0  0  0  0  0  0  0  0
    0.0808    3.5534   -0.5035 N   0  0  0  0  0  0  0  0  0  0  0  0
    1.3577    4.1647   -0.1862 C   0  0  0  0  0  0  0  0  0  0  0  0
   -1.4983    4.8475   -0.2723 H   0  0  0  0  0  0  0  0  0  0  0  0
   -2.9405    3.1227    0.6262 H   0  0  0  0  0  0  0  0  0  0  0  0
   -3.6478    0.7191    0.5419 H   0  0  0  0  0  0  0  0  0  0  0  0
   -2.2290   -2.2665   -1.1410 H   0  0  0  0  0  0  0  0  0  0  0  0
   -3.3745   -4.4059   -1.2190 H   0  0  0  0  0  0  0  0  0  0  0  0
   -5.5329   -4.7307   -0.0383 H   0  0  0  0  0  0  0  0  0  0  0  0
   -6.5190   -2.8774    1.2476 H   0  0  0  0  0  0  0  0  0  0  0  0
   -4.8792   -0.0181    2.3788 H   0  0  0  0  0  0  0  0  0  0  0  0
   -6.4677   -0.7417    2.1320 H   0  0  0  0  0  0  0  0  0  0  0  0
   -5.8756    0.4472    0.9666 H   0  0  0  0  0  0  0  0  0  0  0  0
    2.6276    0.3307   -2.2281 H   0  0  0  0  0  0  0  0  0  0  0  0
    2.9184   -1.3865   -2.3631 H   0  0  0  0  0  0  0  0  0  0  0  0
    3.1331    0.1675    0.2703 H   0  0  0  0  0  0  0  0  0  0  0  0
    3.4275   -1.5550    0.0650 H   0  0  0  0  0  0  0  0  0  0  0  0
    4.9598    0.6569   -1.4051 H   0  0  0  0  0  0  0  0  0  0  0  0
    5.3081   -1.0661   -1.5057 H   0  0  0  0  0  0  0  0  0  0  0  0
    5.5039    0.6486    1.0320 H   0  0  0  0  0  0  0  0  0  0  0  0
    6.8528    0.1862   -0.0001 H   0  0  0  0  0  0  0  0  0  0  0  0
    6.8026   -1.2881    1.9330 H   0  0  0  0  0  0  0  0  0  0  0  0
    6.3850   -2.2423    0.5002 H   0  0  0  0  0  0  0  0  0  0  0  0
    5.1196   -1.7335    1.6377 H   0  0  0  0  0  0  0  0  0  0  0  0
    2.1302    3.8287   -0.8852 H   0  0  0  0  0  0  0  0  0  0  0  0
    1.2876    5.2545   -0.2640 H   0  0  0  0  0  0  0  0  0  0  0  0
    1.6697    3.9076    0.8315 H   0  0  0  0  0  0  0  0  0  0  0  0
  1  2  1  0
  2  3  2  0
  3  4  1  0
  4  5  1  0
  5  6  1  0
  6  7  2  0
  7  8  1  0
  8  9  2  0
  9 10  1  0
 10 11  2  0
 11 12  1  0
  4 13  2  0
 13 14  1  0
 14 15  2  3
 15 16  1  0
 16 17  1  0
 17 18  1  0
 18 19  1  0
 19 20  1  0
 14 21  1  0
 21 22  2  0
 22 23  1  0
 23 24  1  0
 23  1  1  0
 22  3  1  0
 11  6  1  0
  1 25  1  0
  2 26  1  0
  5 27  1  0
  7 28  1  0
  8 29  1  0
  9 30  1  0
 10 31  1  0
 12 32  1  0
 12 33  1  0
 12 34  1  0
 16 35  1  0
 16 36  1  0
 17 37  1  0
 17 38  1  0
 18 39  1  0
 18 40  1  0
 19 41  1  0
 19 42  1  0
 20 43  1  0
 20 44  1  0
 20 45  1  0
 24 46  1  0
 24 47  1  0
 24 48  1  0
M  END
>  <ScrubInfo>  (7) 
{"isomerGroup": 0, "isomerId": 6, "confId": 0, "nr_conformers:": 1, "nr_isomers:": 9}

$$$$
_i7
     RDKit          3D

 48 50  0  0  0  0  0  0  0  0999 V2000
   -2.5648    2.6679   -1.3131 N   0  0  0  0  0  0  0  0  0  0  0  0
   -2.8463    1.3863   -0.8536 C   0  0  0  0  0  0  0  0  0  0  0  0
   -1.7546    0.6863   -0.5142 C   0  0  0  0  0  0  0  0  0  0  0  0
   -1.3780   -0.6272    0.0447 C   0  0  0  0  0  0  0  0  0  0  0  0
   -2.1362   -1.6335    0.3670 N   0  0  0  0  0  0  0  0  0  0  0  0
   -3.5239   -1.5707    0.1890 C   0  0  0  0  0  0  0  0  0  0  0  0
   -4.0732   -1.9899   -1.0291 C   0  0  0  0  0  0  0  0  0  0  0  0
   -5.4513   -1.9513   -1.2401 C   0  0  0  0  0  0  0  0  0  0  0  0
   -6.2941   -1.5039   -0.2264 C   0  0  0  0  0  0  0  0  0  0  0  0
   -5.7609   -1.1079    1.0011 C   0  0  0  0  0  0  0  0  0  0  0  0
   -4.3761   -1.1514    1.2263 C   0  0  0  0  0  0  0  0  0  0  0  0
   -3.8204   -0.7315    2.5576 C   0  0  0  0  0  0  0  0  0  0  0  0
   -0.0273   -0.7389    0.2320 N   0  0  0  0  0  0  0  0  0  0  0  0
    0.9312    0.1928   -0.0477 C   0  0  0  0  0  0  0  0  0  0  0  0
    2.1627   -0.0915    0.2259 N   0  0  0  0  0  0  0  0  0  0  0  0
    3.1687    0.9233   -0.0906 C   0  0  0  0  0  0  0  0  0  0  0  0
    4.5512    0.3890    0.2913 C   0  0  0  0  0  0  0  0  0  0  0  0
    4.9837   -0.7903   -0.5864 C   0  0  0  0  0  0  0  0  0  0  0  0
    6.4204   -1.2460   -0.3205 C   0  0  0  0  0  0  0  0  0  0  0  0
    6.6244   -1.8295    1.0691 C   0  0  0  0  0  0  0  0  0  0  0  0
    0.6113    1.4096   -0.6121 N   0  0  0  0  0  0  0  0  0  0  0  0
   -0.6419    1.6448   -0.8489 C   0  0  0  0  0  0  0  0  0  0  0  0
   -1.1879    2.7934   -1.4277 N   0  0  0  0  0  0  0  0  0  0  0  0
   -0.5781    4.0938   -1.2252 C   0  0  0  0  0  0  0  0  0  0  0  0
   -3.1124    2.9322   -2.1353 H   0  0  0  0  0  0  0  0  0  0  0  0
   -3.8800    1.0760   -0.8083 H   0  0  0  0  0  0  0  0  0  0  0  0
   -3.4165   -2.3513   -1.8161 H   0  0  0  0  0  0  0  0  0  0  0  0
   -5.8648   -2.2780   -2.1904 H   0  0  0  0  0  0  0  0  0  0  0  0
   -7.3692   -1.4761   -0.3853 H   0  0  0  0  0  0  0  0  0  0  0  0
   -6.4345   -0.7749    1.7878 H   0  0  0  0  0  0  0  0  0  0  0  0
   -3.1430   -1.4966    2.9506 H   0  0  0  0  0  0  0  0  0  0  0  0
   -3.2818    0.2163    2.4609 H   0  0  0  0  0  0  0  0  0  0  0  0
   -4.6166   -0.5933    3.2969 H   0  0  0  0  0  0  0  0  0  0  0  0
    0.3100   -1.6027    0.6290 H   0  0  0  0  0  0  0  0  0  0  0  0
    2.9807    1.8356    0.4885 H   0  0  0  0  0  0  0  0  0  0  0  0
    3.1565    1.1751   -1.1580 H   0  0  0  0  0  0  0  0  0  0  0  0
    5.2802    1.2017    0.1877 H   0  0  0  0  0  0  0  0  0  0  0  0
    4.5436    0.0907    1.3459 H   0  0  0  0  0  0  0  0  0  0  0  0
    4.9073   -0.4984   -1.6412 H   0  0  0  0  0  0  0  0  0  0  0  0
    4.3018   -1.6369   -0.4429 H   0  0  0  0  0  0  0  0  0  0  0  0
    6.6844   -2.0104   -1.0611 H   0  0  0  0  0  0  0  0  0  0  0  0
    7.1117   -0.4086   -0.4699 H   0  0  0  0  0  0  0  0  0  0  0  0
    6.4894   -1.0718    1.8463 H   0  0  0  0  0  0  0  0  0  0  0  0
    7.6411   -2.2241    1.1648 H   0  0  0  0  0  0  0  0  0  0  0  0
    5.9239   -2.6491    1.2581 H   0  0  0  0  0  0  0  0  0  0  0  0
    0.4725    4.0797   -1.5325 H   0  0  0  0  0  0  0  0  0  0  0  0
   -1.0908    4.8524   -1.8256 H   0  0  0  0  0  0  0  0  0  0  0  0
   -0.6319    4.3889   -0.1721 H   0  0  0  0  0  0  0  0  0  0  0  0
  1  2  1  0
  2  3  2  0
  3  4  1  0
  4  5  2  3
  5  6  1  0
  6  7  2  0
  7  8  1  0
  8  9  2  0
  9 10  1  0
 10 11  2  0
 11 12  1  0
  4 13  1  0
 13 14  1  0
 14 15  2  3
 15 16  1  0
 16 17  1  0
 17 18  1  0
 18 19  1  0
 19 20  1  0
 14 21  1  0
 21 22  2  0
 22 23  1  0
 23 24  1  0
 23  1  1  0
 22  3  1  0
 11  6  1  0
  1 25  1  0
  2 26  1  0
  7 27  1  0
  8 28  1  0
  9 29  1  0
 10 30  1  0
 12 31  1  0
 12 32  1  0
 12 33  1  0
 13 34  1  0
 16 35  1  0
 16 36  1  0
 17 37  1  0
 17 38  1  0
 18 39  1  0
 18 40  1  0
 19 41  1  0
 19 42  1  0
 20 43  1  0
 20 44  1  0
 20 45  1  0
 24 46  1  0
 24 47  1  0
 24 48  1  0
M  END
>  <ScrubInfo>  (8) 
{"isomerGroup": 0, "isomerId": 7, "confId": 0, "nr_conformers:": 1, "nr_isomers:": 9}

$$$$
_i8
     RDKit          3D

 48 50  0  0  0  0  0  0  0  0999 V2000
    0.7048   -1.0951   -0.3982 N   0  0  0  0  0  0  0  0  0  0  0  0
    0.1363    0.1636   -0.5343 C   0  0  0  0  0  0  0  0  0  0  0  0
    0.7359    1.2976   -0.6696 N   0  0  0  0  0  0  0  0  0  0  0  0
    2.1945    1.3538   -0.7195 C   0  0  0  0  0  0  0  0  0  0  0  0
    2.7583    1.4412    0.6979 C   0  0  0  0  0  0  0  0  0  0  0  0
    4.2778    1.6200    0.7375 C   0  0  0  0  0  0  0  0  0  0  0  0
    5.0425    0.3970    0.2290 C   0  0  0  0  0  0  0  0  0  0  0  0
    6.5442    0.5748    0.3931 C   0  0  0  0  0  0  0  0  0  0  0  0
   -1.2448    0.1532   -0.5087 N   0  0  0  0  0  0  0  0  0  0  0  0
   -2.1432   -0.8866   -0.3718 C   0  0  0  0  0  0  0  0  0  0  0  0
   -3.4348   -0.9006   -0.3453 N   0  0  0  0  0  0  0  0  0  0  0  0
   -4.1028    0.3265   -0.4758 C   0  0  0  0  0  0  0  0  0  0  0  0
   -4.4469    0.7808   -1.7544 C   0  0  0  0  0  0  0  0  0  0  0  0
   -5.0935    2.0045   -1.9251 C   0  0  0  0  0  0  0  0  0  0  0  0
   -5.4087    2.7812   -0.8138 C   0  0  0  0  0  0  0  0  0  0  0  0
   -5.0881    2.3300    0.4673 C   0  0  0  0  0  0  0  0  0  0  0  0
   -4.4459    1.0957    0.6502 C   0  0  0  0  0  0  0  0  0  0  0  0
   -4.1106    0.6250    2.0373 C   0  0  0  0  0  0  0  0  0  0  0  0
   -1.4511   -2.1456   -0.2352 C   0  0  0  0  0  0  0  0  0  0  0  0
   -1.8436   -3.4817   -0.0707 C   0  0  0  0  0  0  0  0  0  0  0  0
   -0.7937   -4.3136    0.0110 N   0  0  0  0  0  0  0  0  0  0  0  0
    0.2800   -3.4937   -0.0994 N   0  0  0  0  0  0  0  0  0  0  0  0
    1.6007   -4.0682   -0.0538 C   0  0  0  0  0  0  0  0  0  0  0  0
   -0.0785   -2.1886   -0.2525 C   0  0  0  0  0  0  0  0  0  0  0  0
    1.7135   -1.1473   -0.3878 H   0  0  0  0  0  0  0  0  0  0  0  0
    2.4752    2.2540   -1.2787 H   0  0  0  0  0  0  0  0  0  0  0  0
    2.6132    0.5118   -1.2800 H   0  0  0  0  0  0  0  0  0  0  0  0
    2.2956    2.2940    1.2111 H   0  0  0  0  0  0  0  0  0  0  0  0
    2.4786    0.5508    1.2737 H   0  0  0  0  0  0  0  0  0  0  0  0
    4.5611    2.5050    0.1548 H   0  0  0  0  0  0  0  0  0  0  0  0
    4.5715    1.8187    1.7758 H   0  0  0  0  0  0  0  0  0  0  0  0
    4.8246    0.2236   -0.8300 H   0  0  0  0  0  0  0  0  0  0  0  0
    4.7244   -0.4967    0.7782 H   0  0  0  0  0  0  0  0  0  0  0  0
    6.8109    0.7113    1.4460 H   0  0  0  0  0  0  0  0  0  0  0  0
    6.8995    1.4453   -0.1676 H   0  0  0  0  0  0  0  0  0  0  0  0
    7.0731   -0.3082    0.0209 H   0  0  0  0  0  0  0  0  0  0  0  0
   -1.6482    1.0743   -0.6045 H   0  0  0  0  0  0  0  0  0  0  0  0
   -4.2071    0.1717   -2.6222 H   0  0  0  0  0  0  0  0  0  0  0  0
   -5.3535    2.3473   -2.9229 H   0  0  0  0  0  0  0  0  0  0  0  0
   -5.9134    3.7355   -0.9427 H   0  0  0  0  0  0  0  0  0  0  0  0
   -5.3505    2.9450    1.3255 H   0  0  0  0  0  0  0  0  0  0  0  0
   -4.6076    1.2372    2.7973 H   0  0  0  0  0  0  0  0  0  0  0  0
   -4.4438   -0.4073    2.1854 H   0  0  0  0  0  0  0  0  0  0  0  0
   -3.0309    0.6864    2.2060 H   0  0  0  0  0  0  0  0  0  0  0  0
   -2.8467   -3.8841   -0.0073 H   0  0  0  0  0  0  0  0  0  0  0  0
    1.6641   -4.7272    0.8160 H   0  0  0  0  0  0  0  0  0  0  0  0
    1.7586   -4.6347   -0.9748 H   0  0  0  0  0  0  0  0  0  0  0  0
    2.3489   -3.2777    0.0326 H   0  0  0  0  0  0  0  0  0  0  0  0
  1  2  1  0
  2  3  2  3
  3  4  1  0
  4  5  1  0
  5  6  1  0
  6  7  1  0
  7  8  1  0
  2  9  1  0
  9 10  1  0
 10 11  2  3
 11 12  1  0
 12 13  2  0
 13 14  1  0
 14 15  2  0
 15 16  1  0
 16 17  2  0
 17 18  1  0
 10 19  1  0
 19 20  1  0
 20 21  2  0
 21 22  1  0
 22 23  1  0
 22 24  1  0
 24  1  1  0
 17 12  1  0
 24 19  2  0
  1 25  1  0
  4 26  1  0
  4 27  1  0
  5 28  1  0
  5 29  1  0
  6 30  1  0
  6 31  1  0
  7 32  1  0
  7 33  1  0
  8 34  1  0
  8 35  1  0
  8 36  1  0
  9 37  1  0
 13 38  1  0
 14 39  1  0
 15 40  1  0
 16 41  1  0
 18 42  1  0
 18 43  1  0
 18 44  1  0
 20 45  1  0
 23 46  1  0
 23 47  1  0
 23 48  1  0
M  END
>  <ScrubInfo>  (9) 
{"isomerGroup": 0, "isomerId": 8, "confId": 0, "nr_conformers:": 1, "nr_isomers:": 9}

$$$$
