REMARK SMILES CCCCCNc1nc(Nc2ccccc2Cl)c2cnn(C)c2n1
REMARK SMILES IDX 5 1 4 2 3 3 2 4 1 5 6 6 7 8 8 9 24 10 9 11 23 12 18 13 21 14
REMARK SMILES IDX 19 15 20 16 22 17 10 18 11 20 12 21 16 22 13 23 15 24 14 25
REMARK SMILES IDX 17 26
REMARK H PARENT 6 7 10 19
ROOT
ATOM      1  C   UNL     1       2.334   1.020  -0.339  1.00  0.00     0.116 C 
ENDROOT
BRANCH   1   2
ATOM      2  C   UNL     1       3.776   1.456  -0.056  1.00  0.00     0.021 C 
BRANCH   2   3
ATOM      3  C   UNL     1       4.777   0.300  -0.152  1.00  0.00     0.002 C 
BRANCH   3   4
ATOM      4  C   UNL     1       6.214   0.716   0.172  1.00  0.00    -0.003 C 
ATOM      5  C   UNL     1       6.809   1.687  -0.837  1.00  0.00     0.004 C 
ENDBRANCH   3   4
ENDBRANCH   2   3
ENDBRANCH   1   2
BRANCH   1   6
ATOM      6  N   UNL     1       1.812   0.242   0.771  1.00  0.00    -0.354 N 
ATOM      7  H   UNL     1       2.367  -0.558   1.052  1.00  0.00     0.163 HD
BRANCH   6   8
ATOM      8  C   UNL     1       0.524  -0.249   0.580  1.00  0.00     0.226 A 
ATOM      9  N   UNL     1      -0.368   0.473  -0.123  1.00  0.00    -0.195 NA
ATOM     10  N   UNL     1       0.293  -1.443   1.136  1.00  0.00    -0.193 NA
ATOM     11  C   UNL     1      -1.632   0.016  -0.311  1.00  0.00     0.147 A 
ATOM     12  C   UNL     1      -0.962  -1.876   0.940  1.00  0.00     0.165 A 
ATOM     13  C   UNL     1      -1.962  -1.224   0.243  1.00  0.00     0.082 A 
ATOM     14  N   UNL     1      -1.510  -3.046   1.388  1.00  0.00    -0.250 N 
ATOM     15  C   UNL     1      -3.067  -2.096   0.334  1.00  0.00     0.149 A 
ATOM     16  N   UNL     1      -2.801  -3.212   1.024  1.00  0.00    -0.179 NA
ATOM     17  C   UNL     1      -0.860  -4.064   2.175  1.00  0.00     0.176 C 
BRANCH  11  18
ATOM     18  N   UNL     1      -2.480   0.861  -1.061  1.00  0.00    -0.338 N 
ATOM     19  H   UNL     1      -2.035   1.776  -0.957  1.00  0.00     0.168 HD
BRANCH  18  20
ATOM     20  C   UNL     1      -3.878   0.968  -0.872  1.00  0.00     0.058 A 
ATOM     21  C   UNL     1      -4.728   0.228  -1.706  1.00  0.00     0.027 A 
ATOM     22  C   UNL     1      -4.448   1.743   0.153  1.00  0.00     0.064 A 
ATOM     23  C   UNL     1      -6.113   0.266  -1.528  1.00  0.00     0.002 A 
ATOM     24  C   UNL     1      -5.833   1.780   0.332  1.00  0.00     0.023 A 
ATOM     25  C   UNL     1      -6.665   1.040  -0.509  1.00  0.00     0.002 A 
ATOM     26  Cl  UNL     1      -3.461   2.688   1.212  1.00  0.00    -0.082 Cl
ENDBRANCH  18  20
ENDBRANCH  11  18
ENDBRANCH   6   8
ENDBRANCH   1   6
TORSDOF 7
