_i0
     RDKit          3D

 45 47  0  0  0  0  0  0  0  0999 V2000
    6.8093    1.6872   -0.8365 C   0  0  0  0  0  0  0  0  0  0  0  0
    6.2142    0.7162    0.1716 C   0  0  0  0  0  0  0  0  0  0  0  0
    4.7770    0.2998   -0.1522 C   0  0  0  0  0  0  0  0  0  0  0  0
    3.7755    1.4562   -0.0555 C   0  0  0  0  0  0  0  0  0  0  0  0
    2.3339    1.0203   -0.3388 C   0  0  0  0  0  0  0  0  0  0  0  0
    1.8118    0.2420    0.7710 N   0  0  0  0  0  0  0  0  0  0  0  0
    0.5243   -0.2488    0.5801 C   0  0  0  0  0  0  0  0  0  0  0  0
   -0.3677    0.4735   -0.1232 N   0  0  0  0  0  0  0  0  0  0  0  0
   -1.6319    0.0159   -0.3111 C   0  0  0  0  0  0  0  0  0  0  0  0
   -2.4801    0.8612   -1.0612 N   0  0  0  0  0  0  0  0  0  0  0  0
   -3.8779    0.9681   -0.8720 C   0  0  0  0  0  0  0  0  0  0  0  0
   -4.7281    0.2283   -1.7060 C   0  0  0  0  0  0  0  0  0  0  0  0
   -6.1128    0.2657   -1.5280 C   0  0  0  0  0  0  0  0  0  0  0  0
   -6.6647    1.0396   -0.5089 C   0  0  0  0  0  0  0  0  0  0  0  0
   -5.8333    1.7797    0.3320 C   0  0  0  0  0  0  0  0  0  0  0  0
   -4.4479    1.7434    0.1534 C   0  0  0  0  0  0  0  0  0  0  0  0
   -3.4606    2.6875    1.2117 Cl  0  0  0  0  0  0  0  0  0  0  0  0
   -1.9621   -1.2239    0.2433 C   0  0  0  0  0  0  0  0  0  0  0  0
   -3.0673   -2.0957    0.3344 C   0  0  0  0  0  0  0  0  0  0  0  0
   -2.8012   -3.2119    1.0239 N   0  0  0  0  0  0  0  0  0  0  0  0
   -1.5098   -3.0463    1.3880 N   0  0  0  0  0  0  0  0  0  0  0  0
   -0.8598   -4.0636    2.1748 C   0  0  0  0  0  0  0  0  0  0  0  0
   -0.9615   -1.8760    0.9397 C   0  0  0  0  0  0  0  0  0  0  0  0
    0.2928   -1.4432    1.1360 N   0  0  0  0  0  0  0  0  0  0  0  0
    6.2992    2.6544   -0.8123 H   0  0  0  0  0  0  0  0  0  0  0  0
    6.7460    1.2866   -1.8531 H   0  0  0  0  0  0  0  0  0  0  0  0
    7.8651    1.8649   -0.6077 H   0  0  0  0  0  0  0  0  0  0  0  0
    6.8386   -0.1850    0.1952 H   0  0  0  0  0  0  0  0  0  0  0  0
    6.2580    1.1579    1.1739 H   0  0  0  0  0  0  0  0  0  0  0  0
    4.7396   -0.1380   -1.1572 H   0  0  0  0  0  0  0  0  0  0  0  0
    4.4932   -0.4940    0.5481 H   0  0  0  0  0  0  0  0  0  0  0  0
    3.8381    1.9197    0.9367 H   0  0  0  0  0  0  0  0  0  0  0  0
    4.0418    2.2255   -0.7892 H   0  0  0  0  0  0  0  0  0  0  0  0
    2.2960    0.4472   -1.2737 H   0  0  0  0  0  0  0  0  0  0  0  0
    1.7324    1.9281   -0.4729 H   0  0  0  0  0  0  0  0  0  0  0  0
    2.3673   -0.5581    1.0516 H   0  0  0  0  0  0  0  0  0  0  0  0
   -2.0347    1.7756   -0.9570 H   0  0  0  0  0  0  0  0  0  0  0  0
   -4.3067   -0.3796   -2.5040 H   0  0  0  0  0  0  0  0  0  0  0  0
   -6.7598   -0.3109   -2.1851 H   0  0  0  0  0  0  0  0  0  0  0  0
   -7.7429    1.0678   -0.3696 H   0  0  0  0  0  0  0  0  0  0  0  0
   -6.2698    2.3824    1.1244 H   0  0  0  0  0  0  0  0  0  0  0  0
   -4.0617   -1.9709   -0.0706 H   0  0  0  0  0  0  0  0  0  0  0  0
   -0.8696   -4.9967    1.6058 H   0  0  0  0  0  0  0  0  0  0  0  0
   -1.4130   -4.1807    3.1102 H   0  0  0  0  0  0  0  0  0  0  0  0
    0.1707   -3.7716    2.3889 H   0  0  0  0  0  0  0  0  0  0  0  0
  1  2  1  0
  2  3  1  0
  3  4  1  0
  4  5  1  0
  5  6  1  0
  6  7  1  0
  7  8  2  0
  8  9  1  0
  9 10  1  0
 10 11  1  0
 11 12  2  0
 12 13  1  0
 13 14  2  0
 14 15  1  0
 15 16  2  0
 16 17  1  0
  9 18  2  0
 18 19  1  0
 19 20  2  0
 20 21  1  0
 21 22  1  0
 21 23  1  0
 23 24  2  0
 24  7  1  0
 16 11  1  0
 23 18  1  0
  1 25  1  0
  1 26  1  0
  1 27  1  0
  2 28  1  0
  2 29  1  0
  3 30  1  0
  3 31  1  0
  4 32  1  0
  4 33  1  0
  5 34  1  0
  5 35  1  0
  6 36  1  0
 10 37  1  0
 12 38  1  0
 13 39  1  0
 14 40  1  0
 15 41  1  0
 19 42  1  0
 22 43  1  0
 22 44  1  0
 22 45  1  0
M  END
>  <ScrubInfo>  (1) 
{"isomerGroup": 0, "isomerId": 0, "confId": 0, "nr_conformers:": 1, "nr_isomers:": 9}

$$$$
_i1
     RDKit          3D

 45 47  0  0  0  0  0  0  0  0999 V2000
   -1.2911    0.0227   -0.2097 N   0  0  0  0  0  0  0  0  0  0  0  0
   -2.4839   -0.6292   -0.4577 C   0  0  0  0  0  0  0  0  0  0  0  0
   -3.7126    0.0159   -0.5607 N   0  0  0  0  0  0  0  0  0  0  0  0
   -3.9485    1.3764   -0.2513 C   0  0  0  0  0  0  0  0  0  0  0  0
   -4.7019    1.6759    0.8963 C   0  0  0  0  0  0  0  0  0  0  0  0
   -4.9217    2.9989    1.2890 C   0  0  0  0  0  0  0  0  0  0  0  0
   -4.3871    4.0463    0.5440 C   0  0  0  0  0  0  0  0  0  0  0  0
   -3.6332    3.7721   -0.5959 C   0  0  0  0  0  0  0  0  0  0  0  0
   -3.4117    2.4484   -0.9910 C   0  0  0  0  0  0  0  0  0  0  0  0
   -2.5090    2.1919   -2.4443 Cl  0  0  0  0  0  0  0  0  0  0  0  0
   -2.3742   -1.9599   -0.5683 C   0  0  0  0  0  0  0  0  0  0  0  0
   -3.2585   -3.1092   -0.7924 C   0  0  0  0  0  0  0  0  0  0  0  0
   -2.6281   -4.2560   -0.7763 N   0  0  0  0  0  0  0  0  0  0  0  0
   -1.2742   -3.9322   -0.5960 N   0  0  0  0  0  0  0  0  0  0  0  0
   -0.3375   -4.9785   -0.2675 C   0  0  0  0  0  0  0  0  0  0  0  0
   -1.0372   -2.5785   -0.4209 C   0  0  0  0  0  0  0  0  0  0  0  0
    0.0607   -1.9489   -0.1745 N   0  0  0  0  0  0  0  0  0  0  0  0
   -0.0678   -0.5802   -0.0793 C   0  0  0  0  0  0  0  0  0  0  0  0
    0.9684    0.1618    0.1364 N   0  0  0  0  0  0  0  0  0  0  0  0
    2.2571   -0.5193    0.2651 C   0  0  0  0  0  0  0  0  0  0  0  0
    3.3315    0.5421    0.5069 C   0  0  0  0  0  0  0  0  0  0  0  0
    4.7166   -0.0909    0.6494 C   0  0  0  0  0  0  0  0  0  0  0  0
    5.8121    0.9192    0.9970 C   0  0  0  0  0  0  0  0  0  0  0  0
    6.0729    1.9353   -0.1042 C   0  0  0  0  0  0  0  0  0  0  0  0
   -1.2934    1.0306   -0.1809 H   0  0  0  0  0  0  0  0  0  0  0  0
   -4.5033   -0.5790   -0.3323 H   0  0  0  0  0  0  0  0  0  0  0  0
   -5.1122    0.8757    1.5080 H   0  0  0  0  0  0  0  0  0  0  0  0
   -5.5048    3.2105    2.1825 H   0  0  0  0  0  0  0  0  0  0  0  0
   -4.5565    5.0760    0.8497 H   0  0  0  0  0  0  0  0  0  0  0  0
   -3.2234    4.5945   -1.1773 H   0  0  0  0  0  0  0  0  0  0  0  0
   -4.3386   -2.9763   -0.9335 H   0  0  0  0  0  0  0  0  0  0  0  0
   -0.3277   -5.1547    0.8126 H   0  0  0  0  0  0  0  0  0  0  0  0
   -0.6082   -5.9136   -0.7684 H   0  0  0  0  0  0  0  0  0  0  0  0
    0.6750   -4.7107   -0.5861 H   0  0  0  0  0  0  0  0  0  0  0  0
    2.4960   -1.0722   -0.6516 H   0  0  0  0  0  0  0  0  0  0  0  0
    2.2419   -1.2178    1.1105 H   0  0  0  0  0  0  0  0  0  0  0  0
    3.0873    1.1106    1.4129 H   0  0  0  0  0  0  0  0  0  0  0  0
    3.3235    1.2550   -0.3259 H   0  0  0  0  0  0  0  0  0  0  0  0
    4.9810   -0.6158   -0.2768 H   0  0  0  0  0  0  0  0  0  0  0  0
    4.6849   -0.8477    1.4430 H   0  0  0  0  0  0  0  0  0  0  0  0
    5.5553    1.4442    1.9244 H   0  0  0  0  0  0  0  0  0  0  0  0
    6.7413    0.3702    1.1907 H   0  0  0  0  0  0  0  0  0  0  0  0
    6.3006    1.4379   -1.0523 H   0  0  0  0  0  0  0  0  0  0  0  0
    6.9280    2.5653    0.1614 H   0  0  0  0  0  0  0  0  0  0  0  0
    5.2123    2.5932   -0.2556 H   0  0  0  0  0  0  0  0  0  0  0  0
  1  2  1  0
  2  3  1  0
  3  4  1  0
  4  5  2  0
  5  6  1  0
  6  7  2  0
  7  8  1  0
  8  9  2  0
  9 10  1  0
  2 11  2  0
 11 12  1  0
 12 13  2  0
 13 14  1  0
 14 15  1  0
 14 16  1  0
 16 17  2  0
 17 18  1  0
 18 19  2  3
 19 20  1  0
 20 21  1  0
 21 22  1  0
 22 23  1  0
 23 24  1  0
 18  1  1  0
  9  4  1  0
 16 11  1  0
  1 25  1  0
  3 26  1  0
  5 27  1  0
  6 28  1  0
  7 29  1  0
  8 30  1  0
 12 31  1  0
 15 32  1  0
 15 33  1  0
 15 34  1  0
 20 35  1  0
 20 36  1  0
 21 37  1  0
 21 38  1  0
 22 39  1  0
 22 40  1  0
 23 41  1  0
 23 42  1  0
 24 43  1  0
 24 44  1  0
 24 45  1  0
M  END
>  <ScrubInfo>  (2) 
{"isomerGroup": 0, "isomerId": 1, "confId": 0, "nr_conformers:": 1, "nr_isomers:": 9}

$$$$
_i2
     RDKit          3D

 45 47  0  0  0  0  0  0  0  0999 V2000
   -0.2530    0.3726    0.0193 N   0  0  0  0  0  0  0  0  0  0  0  0
    0.5617   -0.4343   -0.7329 C   0  0  0  0  0  0  0  0  0  0  0  0
    1.9012   -0.3574   -0.4740 N   0  0  0  0  0  0  0  0  0  0  0  0
    2.4411   -0.4123    0.8770 C   0  0  0  0  0  0  0  0  0  0  0  0
    3.9673   -0.3323    0.8228 C   0  0  0  0  0  0  0  0  0  0  0  0
    4.5750   -0.3738    2.2262 C   0  0  0  0  0  0  0  0  0  0  0  0
    6.1049   -0.4033    2.2240 C   0  0  0  0  0  0  0  0  0  0  0  0
    6.7361    0.8669    1.6753 C   0  0  0  0  0  0  0  0  0  0  0  0
    0.1317   -1.2430   -1.6683 N   0  0  0  0  0  0  0  0  0  0  0  0
   -1.2258   -1.1928   -1.7864 C   0  0  0  0  0  0  0  0  0  0  0  0
   -2.1269   -0.4093   -1.0801 C   0  0  0  0  0  0  0  0  0  0  0  0
   -3.3827   -0.7788   -1.5930 C   0  0  0  0  0  0  0  0  0  0  0  0
   -3.3002   -1.7157   -2.5463 N   0  0  0  0  0  0  0  0  0  0  0  0
   -1.9709   -1.9396   -2.6550 N   0  0  0  0  0  0  0  0  0  0  0  0
   -1.4926   -2.9038   -3.6133 C   0  0  0  0  0  0  0  0  0  0  0  0
   -1.6184    0.5076   -0.0778 C   0  0  0  0  0  0  0  0  0  0  0  0
   -2.2697    1.3595    0.6545 N   0  0  0  0  0  0  0  0  0  0  0  0
   -3.6546    1.5400    0.5309 C   0  0  0  0  0  0  0  0  0  0  0  0
   -4.5026    0.8473    1.4043 C   0  0  0  0  0  0  0  0  0  0  0  0
   -5.8875    1.0173    1.3399 C   0  0  0  0  0  0  0  0  0  0  0  0
   -6.4399    1.8964    0.4101 C   0  0  0  0  0  0  0  0  0  0  0  0
   -5.6080    2.6131   -0.4506 C   0  0  0  0  0  0  0  0  0  0  0  0
   -4.2219    2.4430   -0.3858 C   0  0  0  0  0  0  0  0  0  0  0  0
   -3.2344    3.3612   -1.4676 Cl  0  0  0  0  0  0  0  0  0  0  0  0
    0.1886    1.0814    0.5807 H   0  0  0  0  0  0  0  0  0  0  0  0
    2.3819   -1.0049   -1.0963 H   0  0  0  0  0  0  0  0  0  0  0  0
    2.1306   -1.3477    1.3569 H   0  0  0  0  0  0  0  0  0  0  0  0
    2.0562    0.4198    1.4764 H   0  0  0  0  0  0  0  0  0  0  0  0
    4.2600    0.5915    0.3101 H   0  0  0  0  0  0  0  0  0  0  0  0
    4.3598   -1.1648    0.2255 H   0  0  0  0  0  0  0  0  0  0  0  0
    4.2249    0.4883    2.8070 H   0  0  0  0  0  0  0  0  0  0  0  0
    4.2162   -1.2711    2.7455 H   0  0  0  0  0  0  0  0  0  0  0  0
    6.4609   -1.2657    1.6486 H   0  0  0  0  0  0  0  0  0  0  0  0
    6.4504   -0.5460    3.2549 H   0  0  0  0  0  0  0  0  0  0  0  0
    6.3730    1.7497    2.2110 H   0  0  0  0  0  0  0  0  0  0  0  0
    6.5208    0.9946    0.6104 H   0  0  0  0  0  0  0  0  0  0  0  0
    7.8240    0.8250    1.7899 H   0  0  0  0  0  0  0  0  0  0  0  0
   -4.3670   -0.4226   -1.3245 H   0  0  0  0  0  0  0  0  0  0  0  0
   -1.7945   -3.8986   -3.2763 H   0  0  0  0  0  0  0  0  0  0  0  0
   -1.9397   -2.6782   -4.5850 H   0  0  0  0  0  0  0  0  0  0  0  0
   -0.4046   -2.8491   -3.6906 H   0  0  0  0  0  0  0  0  0  0  0  0
   -4.0768    0.1689    2.1394 H   0  0  0  0  0  0  0  0  0  0  0  0
   -6.5334    0.4662    2.0194 H   0  0  0  0  0  0  0  0  0  0  0  0
   -7.5180    2.0299    0.3603 H   0  0  0  0  0  0  0  0  0  0  0  0
   -6.0432    3.3046   -1.1675 H   0  0  0  0  0  0  0  0  0  0  0  0
  1  2  1  0
  2  3  1  0
  3  4  1  0
  4  5  1  0
  5  6  1  0
  6  7  1  0
  7  8  1  0
  2  9  2  0
  9 10  1  0
 10 11  2  0
 11 12  1  0
 12 13  2  0
 13 14  1  0
 14 15  1  0
 11 16  1  0
 16 17  2  3
 17 18  1  0
 18 19  2  0
 19 20  1  0
 20 21  2  0
 21 22  1  0
 22 23  2  0
 23 24  1  0
 16  1  1  0
 23 18  1  0
 14 10  1  0
  1 25  1  0
  3 26  1  0
  4 27  1  0
  4 28  1  0
  5 29  1  0
  5 30  1  0
  6 31  1  0
  6 32  1  0
  7 33  1  0
  7 34  1  0
  8 35  1  0
  8 36  1  0
  8 37  1  0
 12 38  1  0
 15 39  1  0
 15 40  1  0
 15 41  1  0
 19 42  1  0
 20 43  1  0
 21 44  1  0
 22 45  1  0
M  END
>  <ScrubInfo>  (3) 
{"isomerGroup": 0, "isomerId": 2, "confId": 0, "nr_conformers:": 1, "nr_isomers:": 9}

$$$$
_i3
     RDKit          3D

 45 47  0  0  0  0  0  0  0  0999 V2000
    0.4099    0.5854    0.0545 N   0  0  0  0  0  0  0  0  0  0  0  0
    0.3420   -0.5153   -0.7849 C   0  0  0  0  0  0  0  0  0  0  0  0
    1.2772   -0.9495   -1.5518 N   0  0  0  0  0  0  0  0  0  0  0  0
    2.5606   -0.2690   -1.6410 C   0  0  0  0  0  0  0  0  0  0  0  0
    3.5043   -0.7910   -0.5595 C   0  0  0  0  0  0  0  0  0  0  0  0
    4.8777   -0.1253   -0.6503 C   0  0  0  0  0  0  0  0  0  0  0  0
    5.8217   -0.6486    0.4318 C   0  0  0  0  0  0  0  0  0  0  0  0
    7.1886    0.0115    0.3454 C   0  0  0  0  0  0  0  0  0  0  0  0
   -0.8092   -1.2860   -0.8617 N   0  0  0  0  0  0  0  0  0  0  0  0
   -1.8518   -0.9699   -0.1460 C   0  0  0  0  0  0  0  0  0  0  0  0
   -3.0102   -1.7060   -0.1886 N   0  0  0  0  0  0  0  0  0  0  0  0
   -4.3098   -1.1518   -0.3412 C   0  0  0  0  0  0  0  0  0  0  0  0
   -5.3389   -1.7510    0.4061 C   0  0  0  0  0  0  0  0  0  0  0  0
   -6.6617   -1.3188    0.2922 C   0  0  0  0  0  0  0  0  0  0  0  0
   -6.9846   -0.2980   -0.5961 C   0  0  0  0  0  0  0  0  0  0  0  0
   -5.9873    0.2775   -1.3824 C   0  0  0  0  0  0  0  0  0  0  0  0
   -4.6599   -0.1545   -1.2717 C   0  0  0  0  0  0  0  0  0  0  0  0
   -3.5139    0.5593   -2.3508 Cl  0  0  0  0  0  0  0  0  0  0  0  0
   -1.8054    0.1435    0.7735 C   0  0  0  0  0  0  0  0  0  0  0  0
   -2.6352    0.7446    1.7322 C   0  0  0  0  0  0  0  0  0  0  0  0
   -2.0505    1.7963    2.3282 N   0  0  0  0  0  0  0  0  0  0  0  0
   -0.8302    1.8627    1.7418 N   0  0  0  0  0  0  0  0  0  0  0  0
    0.0862    2.8971    2.1481 C   0  0  0  0  0  0  0  0  0  0  0  0
   -0.6542    0.8800    0.8207 C   0  0  0  0  0  0  0  0  0  0  0  0
    1.2848    1.0836    0.0962 H   0  0  0  0  0  0  0  0  0  0  0  0
    2.9860   -0.4834   -2.6285 H   0  0  0  0  0  0  0  0  0  0  0  0
    2.4590    0.8212   -1.5933 H   0  0  0  0  0  0  0  0  0  0  0  0
    3.6113   -1.8782   -0.6614 H   0  0  0  0  0  0  0  0  0  0  0  0
    3.0736   -0.6109    0.4328 H   0  0  0  0  0  0  0  0  0  0  0  0
    5.3127   -0.3129   -1.6396 H   0  0  0  0  0  0  0  0  0  0  0  0
    4.7665    0.9610   -0.5467 H   0  0  0  0  0  0  0  0  0  0  0  0
    5.3934   -0.4597    1.4231 H   0  0  0  0  0  0  0  0  0  0  0  0
    5.9394   -1.7338    0.3306 H   0  0  0  0  0  0  0  0  0  0  0  0
    7.8474   -0.3772    1.1281 H   0  0  0  0  0  0  0  0  0  0  0  0
    7.1096    1.0956    0.4752 H   0  0  0  0  0  0  0  0  0  0  0  0
    7.6588   -0.1855   -0.6233 H   0  0  0  0  0  0  0  0  0  0  0  0
   -2.8881   -2.4323   -0.8932 H   0  0  0  0  0  0  0  0  0  0  0  0
   -5.1035   -2.5542    1.1024 H   0  0  0  0  0  0  0  0  0  0  0  0
   -7.4387   -1.7827    0.8954 H   0  0  0  0  0  0  0  0  0  0  0  0
   -8.0139    0.0403   -0.6887 H   0  0  0  0  0  0  0  0  0  0  0  0
   -6.2526    1.0566   -2.0933 H   0  0  0  0  0  0  0  0  0  0  0  0
   -3.6375    0.4706    2.0332 H   0  0  0  0  0  0  0  0  0  0  0  0
   -0.4161    3.8630    2.0508 H   0  0  0  0  0  0  0  0  0  0  0  0
    0.3686    2.7159    3.1882 H   0  0  0  0  0  0  0  0  0  0  0  0
    0.9738    2.8796    1.5123 H   0  0  0  0  0  0  0  0  0  0  0  0
  1  2  1  0
  2  3  2  3
  3  4  1  0
  4  5  1  0
  5  6  1  0
  6  7  1  0
  7  8  1  0
  2  9  1  0
  9 10  2  0
 10 11  1  0
 11 12  1  0
 12 13  2  0
 13 14  1  0
 14 15  2  0
 15 16  1  0
 16 17  2  0
 17 18  1  0
 10 19  1  0
 19 20  1  0
 20 21  2  0
 21 22  1  0
 22 23  1  0
 22 24  1  0
 24  1  1  0
 17 12  1  0
 24 19  2  0
  1 25  1  0
  4 26  1  0
  4 27  1  0
  5 28  1  0
  5 29  1  0
  6 30  1  0
  6 31  1  0
  7 32  1  0
  7 33  1  0
  8 34  1  0
  8 35  1  0
  8 36  1  0
 11 37  1  0
 13 38  1  0
 14 39  1  0
 15 40  1  0
 16 41  1  0
 20 42  1  0
 23 43  1  0
 23 44  1  0
 23 45  1  0
M  END
>  <ScrubInfo>  (4) 
{"isomerGroup": 0, "isomerId": 3, "confId": 0, "nr_conformers:": 1, "nr_isomers:": 9}

$$$$
_i4
     RDKit          3D

 45 47  0  0  0  0  0  0  0  0999 V2000
   -3.6179    2.5650   -0.7628 N   0  0  0  0  0  0  0  0  0  0  0  0
   -3.4569    1.2581   -0.3136 C   0  0  0  0  0  0  0  0  0  0  0  0
   -2.1738    0.9056   -0.1396 C   0  0  0  0  0  0  0  0  0  0  0  0
   -1.3916   -0.2413    0.3030 C   0  0  0  0  0  0  0  0  0  0  0  0
   -1.7554   -1.4405    0.6154 N   0  0  0  0  0  0  0  0  0  0  0  0
   -3.0992   -1.8315    0.5321 C   0  0  0  0  0  0  0  0  0  0  0  0
   -3.8616   -1.8409    1.7070 C   0  0  0  0  0  0  0  0  0  0  0  0
   -5.1981   -2.2464    1.6909 C   0  0  0  0  0  0  0  0  0  0  0  0
   -5.7854   -2.6629    0.4979 C   0  0  0  0  0  0  0  0  0  0  0  0
   -5.0349   -2.6804   -0.6781 C   0  0  0  0  0  0  0  0  0  0  0  0
   -3.6967   -2.2739   -0.6613 C   0  0  0  0  0  0  0  0  0  0  0  0
   -2.8182   -2.3095   -2.1497 Cl  0  0  0  0  0  0  0  0  0  0  0  0
   -0.0505    0.0117    0.4060 N   0  0  0  0  0  0  0  0  0  0  0  0
    0.4950    1.1356    0.0565 C   0  0  0  0  0  0  0  0  0  0  0  0
    1.8420    1.3266    0.1788 N   0  0  0  0  0  0  0  0  0  0  0  0
    2.7681    0.2155    0.2737 C   0  0  0  0  0  0  0  0  0  0  0  0
    4.1826    0.7479    0.5040 C   0  0  0  0  0  0  0  0  0  0  0  0
    5.2158   -0.3545    0.7507 C   0  0  0  0  0  0  0  0  0  0  0  0
    5.4378   -1.2601   -0.4612 C   0  0  0  0  0  0  0  0  0  0  0  0
    6.5498   -2.2660   -0.2051 C   0  0  0  0  0  0  0  0  0  0  0  0
   -0.1726    2.2135   -0.4592 N   0  0  0  0  0  0  0  0  0  0  0  0
   -1.4524    2.1207   -0.5618 C   0  0  0  0  0  0  0  0  0  0  0  0
   -2.3558    3.0729   -1.0374 N   0  0  0  0  0  0  0  0  0  0  0  0
   -2.1111    4.4901   -0.8488 C   0  0  0  0  0  0  0  0  0  0  0  0
   -4.3079    2.6506   -1.5130 H   0  0  0  0  0  0  0  0  0  0  0  0
   -4.3431    0.6623   -0.1543 H   0  0  0  0  0  0  0  0  0  0  0  0
   -3.4007   -1.5346    2.6435 H   0  0  0  0  0  0  0  0  0  0  0  0
   -5.7744   -2.2473    2.6130 H   0  0  0  0  0  0  0  0  0  0  0  0
   -6.8235   -2.9864    0.4859 H   0  0  0  0  0  0  0  0  0  0  0  0
   -5.4938   -3.0186   -1.6036 H   0  0  0  0  0  0  0  0  0  0  0  0
    2.1545    2.1179   -0.3693 H   0  0  0  0  0  0  0  0  0  0  0  0
    2.7251   -0.3681   -0.6519 H   0  0  0  0  0  0  0  0  0  0  0  0
    2.4857   -0.4402    1.1054 H   0  0  0  0  0  0  0  0  0  0  0  0
    4.4933    1.3612   -0.3513 H   0  0  0  0  0  0  0  0  0  0  0  0
    4.1774    1.4161    1.3751 H   0  0  0  0  0  0  0  0  0  0  0  0
    6.1664    0.1223    1.0207 H   0  0  0  0  0  0  0  0  0  0  0  0
    4.9101   -0.9584    1.6138 H   0  0  0  0  0  0  0  0  0  0  0  0
    5.6962   -0.6543   -1.3373 H   0  0  0  0  0  0  0  0  0  0  0  0
    4.5199   -1.8072   -0.7013 H   0  0  0  0  0  0  0  0  0  0  0  0
    6.3094   -2.9071    0.6491 H   0  0  0  0  0  0  0  0  0  0  0  0
    6.6907   -2.9063   -1.0816 H   0  0  0  0  0  0  0  0  0  0  0  0
    7.4980   -1.7593    0.0009 H   0  0  0  0  0  0  0  0  0  0  0  0
   -2.1234    4.7493    0.2150 H   0  0  0  0  0  0  0  0  0  0  0  0
   -2.8790    5.0801   -1.3596 H   0  0  0  0  0  0  0  0  0  0  0  0
   -1.1399    4.7726   -1.2676 H   0  0  0  0  0  0  0  0  0  0  0  0
  1  2  1  0
  2  3  2  0
  3  4  1  0
  4  5  2  3
  5  6  1  0
  6  7  2  0
  7  8  1  0
  8  9  2  0
  9 10  1  0
 10 11  2  0
 11 12  1  0
  4 13  1  0
 13 14  2  0
 14 15  1  0
 15 16  1  0
 16 17  1  0
 17 18  1  0
 18 19  1  0
 19 20  1  0
 14 21  1  0
 21 22  2  0
 22 23  1  0
 23 24  1  0
 23  1  1  0
 22  3  1  0
 11  6  1  0
  1 25  1  0
  2 26  1  0
  7 27  1  0
  8 28  1  0
  9 29  1  0
 10 30  1  0
 15 31  1  0
 16 32  1  0
 16 33  1  0
 17 34  1  0
 17 35  1  0
 18 36  1  0
 18 37  1  0
 19 38  1  0
 19 39  1  0
 20 40  1  0
 20 41  1  0
 20 42  1  0
 24 43  1  0
 24 44  1  0
 24 45  1  0
M  END
>  <ScrubInfo>  (5) 
{"isomerGroup": 0, "isomerId": 4, "confId": 0, "nr_conformers:": 1, "nr_isomers:": 9}

$$$$
_i5
     RDKit          3D

 45 47  0  0  0  0  0  0  0  0999 V2000
    0.5947   -1.8897    0.8915 N   0  0  0  0  0  0  0  0  0  0  0  0
    0.2882   -0.9653   -0.0807 C   0  0  0  0  0  0  0  0  0  0  0  0
   -1.0391   -0.8664   -0.3894 N   0  0  0  0  0  0  0  0  0  0  0  0
   -2.0330   -0.5916    0.6430 C   0  0  0  0  0  0  0  0  0  0  0  0
   -3.4181   -0.4994    0.0030 C   0  0  0  0  0  0  0  0  0  0  0  0
   -4.5503   -0.3377    1.0212 C   0  0  0  0  0  0  0  0  0  0  0  0
   -4.4704    0.9063    1.9093 C   0  0  0  0  0  0  0  0  0  0  0  0
   -4.4818    2.2117    1.1296 C   0  0  0  0  0  0  0  0  0  0  0  0
    1.1447   -0.2153   -0.7183 N   0  0  0  0  0  0  0  0  0  0  0  0
    2.4933   -0.3117   -0.3965 C   0  0  0  0  0  0  0  0  0  0  0  0
    3.4230    0.4140   -0.9308 N   0  0  0  0  0  0  0  0  0  0  0  0
    3.0371    1.3838   -1.8753 C   0  0  0  0  0  0  0  0  0  0  0  0
    3.1888    1.0864   -3.2357 C   0  0  0  0  0  0  0  0  0  0  0  0
    2.8447    2.0198   -4.2166 C   0  0  0  0  0  0  0  0  0  0  0  0
    2.3532    3.2701   -3.8469 C   0  0  0  0  0  0  0  0  0  0  0  0
    2.2102    3.5893   -2.4963 C   0  0  0  0  0  0  0  0  0  0  0  0
    2.5548    2.6542   -1.5145 C   0  0  0  0  0  0  0  0  0  0  0  0
    2.3771    3.1153    0.1438 Cl  0  0  0  0  0  0  0  0  0  0  0  0
    2.8652   -1.2944    0.5886 C   0  0  0  0  0  0  0  0  0  0  0  0
    4.0624   -1.7466    1.1584 C   0  0  0  0  0  0  0  0  0  0  0  0
    3.8608   -2.7323    2.0495 N   0  0  0  0  0  0  0  0  0  0  0  0
    2.5142   -2.8993    2.0480 N   0  0  0  0  0  0  0  0  0  0  0  0
    1.9308   -3.8914    2.9139 C   0  0  0  0  0  0  0  0  0  0  0  0
    1.8957   -2.0484    1.1890 C   0  0  0  0  0  0  0  0  0  0  0  0
   -0.1302   -2.5441    1.1511 H   0  0  0  0  0  0  0  0  0  0  0  0
   -1.1217   -0.1897   -1.1478 H   0  0  0  0  0  0  0  0  0  0  0  0
   -1.7776    0.3485    1.1435 H   0  0  0  0  0  0  0  0  0  0  0  0
   -2.0310   -1.3890    1.3941 H   0  0  0  0  0  0  0  0  0  0  0  0
   -3.6071   -1.4128   -0.5761 H   0  0  0  0  0  0  0  0  0  0  0  0
   -3.4415    0.3234   -0.7216 H   0  0  0  0  0  0  0  0  0  0  0  0
   -5.5039   -0.3253    0.4786 H   0  0  0  0  0  0  0  0  0  0  0  0
   -4.5761   -1.2241    1.6673 H   0  0  0  0  0  0  0  0  0  0  0  0
   -3.5780    0.8661    2.5433 H   0  0  0  0  0  0  0  0  0  0  0  0
   -5.3314    0.8991    2.5888 H   0  0  0  0  0  0  0  0  0  0  0  0
   -3.5782    2.3245    0.5234 H   0  0  0  0  0  0  0  0  0  0  0  0
   -5.3525    2.2673    0.4687 H   0  0  0  0  0  0  0  0  0  0  0  0
   -4.5255    3.0606    1.8195 H   0  0  0  0  0  0  0  0  0  0  0  0
    3.5773    0.1143   -3.5280 H   0  0  0  0  0  0  0  0  0  0  0  0
    2.9646    1.7688   -5.2675 H   0  0  0  0  0  0  0  0  0  0  0  0
    2.0873    3.9981   -4.6092 H   0  0  0  0  0  0  0  0  0  0  0  0
    1.8354    4.5688   -2.2120 H   0  0  0  0  0  0  0  0  0  0  0  0
    5.0714   -1.4075    0.9612 H   0  0  0  0  0  0  0  0  0  0  0  0
    2.2847   -4.8753    2.5962 H   0  0  0  0  0  0  0  0  0  0  0  0
    2.2460   -3.6841    3.9397 H   0  0  0  0  0  0  0  0  0  0  0  0
    0.8415   -3.8489    2.8478 H   0  0  0  0  0  0  0  0  0  0  0  0
  1  2  1  0
  2  3  1  0
  3  4  1  0
  4  5  1  0
  5  6  1  0
  6  7  1  0
  7  8  1  0
  2  9  2  0
  9 10  1  0
 10 11  2  3
 11 12  1  0
 12 13  2  0
 13 14  1  0
 14 15  2  0
 15 16  1  0
 16 17  2  0
 17 18  1  0
 10 19  1  0
 19 20  1  0
 20 21  2  0
 21 22  1  0
 22 23  1  0
 22 24  1  0
 24  1  1  0
 17 12  1  0
 24 19  2  0
  1 25  1  0
  3 26  1  0
  4 27  1  0
  4 28  1  0
  5 29  1  0
  5 30  1  0
  6 31  1  0
  6 32  1  0
  7 33  1  0
  7 34  1  0
  8 35  1  0
  8 36  1  0
  8 37  1  0
 13 38  1  0
 14 39  1  0
 15 40  1  0
 16 41  1  0
 20 42  1  0
 23 43  1  0
 23 44  1  0
 23 45  1  0
M  END
>  <ScrubInfo>  (6) 
{"isomerGroup": 0, "isomerId": 5, "confId": 0, "nr_conformers:": 1, "nr_isomers:": 9}

$$$$
_i6
     RDKit          3D

 45 47  0  0  0  0  0  0  0  0999 V2000
   -2.2731   -2.2101    1.5946 N   0  0  0  0  0  0  0  0  0  0  0  0
   -2.8097   -1.0082    1.1440 C   0  0  0  0  0  0  0  0  0  0  0  0
   -1.8761   -0.1346    0.7438 C   0  0  0  0  0  0  0  0  0  0  0  0
   -1.7871    1.2282    0.2236 C   0  0  0  0  0  0  0  0  0  0  0  0
   -2.8754    2.0302   -0.0527 N   0  0  0  0  0  0  0  0  0  0  0  0
   -4.0730    1.5585   -0.6420 C   0  0  0  0  0  0  0  0  0  0  0  0
   -5.2789    1.9851   -0.0622 C   0  0  0  0  0  0  0  0  0  0  0  0
   -6.5115    1.6177   -0.6063 C   0  0  0  0  0  0  0  0  0  0  0  0
   -6.5585    0.8404   -1.7597 C   0  0  0  0  0  0  0  0  0  0  0  0
   -5.3729    0.4446   -2.3775 C   0  0  0  0  0  0  0  0  0  0  0  0
   -4.1365    0.8125   -1.8343 C   0  0  0  0  0  0  0  0  0  0  0  0
   -2.7206    0.3429   -2.7072 Cl  0  0  0  0  0  0  0  0  0  0  0  0
   -0.6021    1.7396    0.0328 N   0  0  0  0  0  0  0  0  0  0  0  0
    0.5123    0.9754    0.3042 C   0  0  0  0  0  0  0  0  0  0  0  0
    1.6189    1.6030    0.1202 N   0  0  0  0  0  0  0  0  0  0  0  0
    2.8842    0.9184    0.3753 C   0  0  0  0  0  0  0  0  0  0  0  0
    3.3749    0.2493   -0.9084 C   0  0  0  0  0  0  0  0  0  0  0  0
    4.6518   -0.5727   -0.7165 C   0  0  0  0  0  0  0  0  0  0  0  0
    5.8684    0.2735   -0.3400 C   0  0  0  0  0  0  0  0  0  0  0  0
    7.1313   -0.5716   -0.2707 C   0  0  0  0  0  0  0  0  0  0  0  0
    0.5308   -0.3356    0.7237 N   0  0  0  0  0  0  0  0  0  0  0  0
   -0.6158   -0.8847    0.9275 C   0  0  0  0  0  0  0  0  0  0  0  0
   -0.9040   -2.1837    1.3480 N   0  0  0  0  0  0  0  0  0  0  0  0
   -0.0100   -2.8930    2.2430 C   0  0  0  0  0  0  0  0  0  0  0  0
   -2.7735   -3.0317    1.2473 H   0  0  0  0  0  0  0  0  0  0  0  0
   -3.8824   -0.8797    1.1482 H   0  0  0  0  0  0  0  0  0  0  0  0
   -2.5581    2.8775   -0.5215 H   0  0  0  0  0  0  0  0  0  0  0  0
   -5.2583    2.6012    0.8352 H   0  0  0  0  0  0  0  0  0  0  0  0
   -7.4337    1.9458   -0.1319 H   0  0  0  0  0  0  0  0  0  0  0  0
   -7.5170    0.5577   -2.1887 H   0  0  0  0  0  0  0  0  0  0  0  0
   -5.4176   -0.1387   -3.2944 H   0  0  0  0  0  0  0  0  0  0  0  0
    3.6047    1.6787    0.6962 H   0  0  0  0  0  0  0  0  0  0  0  0
    2.8233    0.1999    1.2013 H   0  0  0  0  0  0  0  0  0  0  0  0
    2.5940   -0.4182   -1.2937 H   0  0  0  0  0  0  0  0  0  0  0  0
    3.5355    1.0100   -1.6825 H   0  0  0  0  0  0  0  0  0  0  0  0
    4.8607   -1.1033   -1.6538 H   0  0  0  0  0  0  0  0  0  0  0  0
    4.4828   -1.3401    0.0488 H   0  0  0  0  0  0  0  0  0  0  0  0
    5.7137    0.7515    0.6331 H   0  0  0  0  0  0  0  0  0  0  0  0
    6.0103    1.0717   -1.0777 H   0  0  0  0  0  0  0  0  0  0  0  0
    7.0325   -1.3634    0.4787 H   0  0  0  0  0  0  0  0  0  0  0  0
    7.9890    0.0507    0.0033 H   0  0  0  0  0  0  0  0  0  0  0  0
    7.3455   -1.0377   -1.2377 H   0  0  0  0  0  0  0  0  0  0  0  0
   -0.3522   -3.9233    2.3850 H   0  0  0  0  0  0  0  0  0  0  0  0
    1.0017   -2.9315    1.8264 H   0  0  0  0  0  0  0  0  0  0  0  0
    0.0318   -2.4022    3.2209 H   0  0  0  0  0  0  0  0  0  0  0  0
  1  2  1  0
  2  3  2  0
  3  4  1  0
  4  5  1  0
  5  6  1  0
  6  7  2  0
  7  8  1  0
  8  9  2  0
  9 10  1  0
 10 11  2  0
 11 12  1  0
  4 13  2  0
 13 14  1  0
 14 15  2  3
 15 16  1  0
 16 17  1  0
 17 18  1  0
 18 19  1  0
 19 20  1  0
 14 21  1  0
 21 22  2  0
 22 23  1  0
 23 24  1  0
 23  1  1  0
 22  3  1  0
 11  6  1  0
  1 25  1  0
  2 26  1  0
  5 27  1  0
  7 28  1  0
  8 29  1  0
  9 30  1  0
 10 31  1  0
 16 32  1  0
 16 33  1  0
 17 34  1  0
 17 35  1  0
 18 36  1  0
 18 37  1  0
 19 38  1  0
 19 39  1  0
 20 40  1  0
 20 41  1  0
 20 42  1  0
 24 43  1  0
 24 44  1  0
 24 45  1  0
M  END
>  <ScrubInfo>  (7) 
{"isomerGroup": 0, "isomerId": 6, "confId": 0, "nr_conformers:": 1, "nr_isomers:": 9}

$$$$
_i7
     RDKit          3D

 45 47  0  0  0  0  0  0  0  0999 V2000
   -3.6295    2.5798   -0.5898 N   0  0  0  0  0  0  0  0  0  0  0  0
   -3.4452    1.2515   -0.2218 C   0  0  0  0  0  0  0  0  0  0  0  0
   -2.1571    0.8828   -0.1709 C   0  0  0  0  0  0  0  0  0  0  0  0
   -1.3229   -0.2850    0.1662 C   0  0  0  0  0  0  0  0  0  0  0  0
   -1.6830   -1.4849    0.5166 N   0  0  0  0  0  0  0  0  0  0  0  0
   -3.0397   -1.8390    0.5866 C   0  0  0  0  0  0  0  0  0  0  0  0
   -3.6810   -1.7875    1.8304 C   0  0  0  0  0  0  0  0  0  0  0  0
   -5.0222   -2.1560    1.9592 C   0  0  0  0  0  0  0  0  0  0  0  0
   -5.7348   -2.5955    0.8450 C   0  0  0  0  0  0  0  0  0  0  0  0
   -5.1055   -2.6730   -0.3978 C   0  0  0  0  0  0  0  0  0  0  0  0
   -3.7630   -2.3037   -0.5261 C   0  0  0  0  0  0  0  0  0  0  0  0
   -3.0319   -2.4162   -2.0884 Cl  0  0  0  0  0  0  0  0  0  0  0  0
    0.0178   -0.0132    0.0916 N   0  0  0  0  0  0  0  0  0  0  0  0
    0.6080    1.1734   -0.2644 C   0  0  0  0  0  0  0  0  0  0  0  0
    1.8706    1.4148   -0.3082 N   0  0  0  0  0  0  0  0  0  0  0  0
    2.8134    0.3607    0.0458 C   0  0  0  0  0  0  0  0  0  0  0  0
    4.2279    0.9279   -0.0745 C   0  0  0  0  0  0  0  0  0  0  0  0
    5.3163   -0.0411    0.3937 C   0  0  0  0  0  0  0  0  0  0  0  0
    5.4302   -1.2929   -0.4771 C   0  0  0  0  0  0  0  0  0  0  0  0
    6.5960   -2.1674   -0.0409 C   0  0  0  0  0  0  0  0  0  0  0  0
   -0.1579    2.2614   -0.6272 N   0  0  0  0  0  0  0  0  0  0  0  0
   -1.4466    2.1353   -0.6043 C   0  0  0  0  0  0  0  0  0  0  0  0
   -2.3948    3.1014   -0.9475 N   0  0  0  0  0  0  0  0  0  0  0  0
   -2.1310    4.5126   -0.7412 C   0  0  0  0  0  0  0  0  0  0  0  0
   -4.3830    2.7109   -1.2687 H   0  0  0  0  0  0  0  0  0  0  0  0
   -4.3222    0.6574   -0.0138 H   0  0  0  0  0  0  0  0  0  0  0  0
   -3.1256   -1.4602    2.7061 H   0  0  0  0  0  0  0  0  0  0  0  0
   -5.5060   -2.1084    2.9320 H   0  0  0  0  0  0  0  0  0  0  0  0
   -6.7772   -2.8886    0.9462 H   0  0  0  0  0  0  0  0  0  0  0  0
   -5.6623   -3.0279   -1.2613 H   0  0  0  0  0  0  0  0  0  0  0  0
    0.6166   -0.7911    0.3139 H   0  0  0  0  0  0  0  0  0  0  0  0
    2.6955   -0.4914   -0.6324 H   0  0  0  0  0  0  0  0  0  0  0  0
    2.6432    0.0236    1.0751 H   0  0  0  0  0  0  0  0  0  0  0  0
    4.4190    1.2285   -1.1123 H   0  0  0  0  0  0  0  0  0  0  0  0
    4.2986    1.8431    0.5276 H   0  0  0  0  0  0  0  0  0  0  0  0
    6.2755    0.4913    0.3827 H   0  0  0  0  0  0  0  0  0  0  0  0
    5.1283   -0.3299    1.4350 H   0  0  0  0  0  0  0  0  0  0  0  0
    5.5688   -1.0065   -1.5259 H   0  0  0  0  0  0  0  0  0  0  0  0
    4.5095   -1.8831   -0.4183 H   0  0  0  0  0  0  0  0  0  0  0  0
    6.6583   -3.0587   -0.6730 H   0  0  0  0  0  0  0  0  0  0  0  0
    7.5444   -1.6268   -0.1222 H   0  0  0  0  0  0  0  0  0  0  0  0
    6.4740   -2.4943    0.9968 H   0  0  0  0  0  0  0  0  0  0  0  0
   -2.0353    4.7381    0.3261 H   0  0  0  0  0  0  0  0  0  0  0  0
   -2.9465    5.1164   -1.1523 H   0  0  0  0  0  0  0  0  0  0  0  0
   -1.2074    4.8111   -1.2474 H   0  0  0  0  0  0  0  0  0  0  0  0
  1  2  1  0
  2  3  2  0
  3  4  1  0
  4  5  2  3
  5  6  1  0
  6  7  2  0
  7  8  1  0
  8  9  2  0
  9 10  1  0
 10 11  2  0
 11 12  1  0
  4 13  1  0
 13 14  1  0
 14 15  2  3
 15 16  1  0
 16 17  1  0
 17 18  1  0
 18 19  1  0
 19 20  1  0
 14 21  1  0
 21 22  2  0
 22 23  1  0
 23 24  1  0
 23  1  1  0
 22  3  1  0
 11  6  1  0
  1 25  1  0
  2 26  1  0
  7 27  1  0
  8 28  1  0
  9 29  1  0
 10 30  1  0
 13 31  1  0
 16 32  1  0
 16 33  1  0
 17 34  1  0
 17 35  1  0
 18 36  1  0
 18 37  1  0
 19 38  1  0
 19 39  1  0
 20 40  1  0
 20 41  1  0
 20 42  1  0
 24 43  1  0
 24 44  1  0
 24 45  1  0
M  END
>  <ScrubInfo>  (8) 
{"isomerGroup": 0, "isomerId": 7, "confId": 0, "nr_conformers:": 1, "nr_isomers:": 9}

$$$$
_i8
     RDKit          3D

 45 47  0  0  0  0  0  0  0  0999 V2000
    0.3871    0.2576    1.3896 N   0  0  0  0  0  0  0  0  0  0  0  0
   -0.1761   -0.5849    0.4422 C   0  0  0  0  0  0  0  0  0  0  0  0
    0.3635   -1.5973   -0.1470 N   0  0  0  0  0  0  0  0  0  0  0  0
    1.7280   -1.9967    0.1830 C   0  0  0  0  0  0  0  0  0  0  0  0
    2.7216   -1.2211   -0.6808 C   0  0  0  0  0  0  0  0  0  0  0  0
    4.1615   -1.6421   -0.3823 C   0  0  0  0  0  0  0  0  0  0  0  0
    5.1913   -0.9649   -1.2890 C   0  0  0  0  0  0  0  0  0  0  0  0
    5.2859    0.5391   -1.0829 C   0  0  0  0  0  0  0  0  0  0  0  0
   -1.4763   -0.2563    0.1099 N   0  0  0  0  0  0  0  0  0  0  0  0
   -2.3005    0.7564    0.5597 C   0  0  0  0  0  0  0  0  0  0  0  0
   -3.5155    1.0718    0.2546 N   0  0  0  0  0  0  0  0  0  0  0  0
   -4.1927    0.2761   -0.6865 C   0  0  0  0  0  0  0  0  0  0  0  0
   -4.2492    0.7189   -2.0135 C   0  0  0  0  0  0  0  0  0  0  0  0
   -4.9142   -0.0273   -2.9890 C   0  0  0  0  0  0  0  0  0  0  0  0
   -5.5410   -1.2234   -2.6449 C   0  0  0  0  0  0  0  0  0  0  0  0
   -5.5083   -1.6715   -1.3241 C   0  0  0  0  0  0  0  0  0  0  0  0
   -4.8429   -0.9238   -0.3481 C   0  0  0  0  0  0  0  0  0  0  0  0
   -4.8292   -1.5273    1.2716 Cl  0  0  0  0  0  0  0  0  0  0  0  0
   -1.6191    1.5736    1.5353 C   0  0  0  0  0  0  0  0  0  0  0  0
   -1.9568    2.7041    2.2932 C   0  0  0  0  0  0  0  0  0  0  0  0
   -0.9463    3.1116    3.0768 N   0  0  0  0  0  0  0  0  0  0  0  0
    0.0416    2.2192    2.8229 N   0  0  0  0  0  0  0  0  0  0  0  0
    1.2985    2.3578    3.5139 C   0  0  0  0  0  0  0  0  0  0  0  0
   -0.3259    1.2882    1.8991 C   0  0  0  0  0  0  0  0  0  0  0  0
    1.3448    0.0787    1.6561 H   0  0  0  0  0  0  0  0  0  0  0  0
    1.9479   -1.8803    1.2505 H   0  0  0  0  0  0  0  0  0  0  0  0
    1.8222   -3.0689   -0.0255 H   0  0  0  0  0  0  0  0  0  0  0  0
    2.4961   -1.3930   -1.7405 H   0  0  0  0  0  0  0  0  0  0  0  0
    2.5997   -0.1470   -0.5031 H   0  0  0  0  0  0  0  0  0  0  0  0
    4.2520   -2.7277   -0.5125 H   0  0  0  0  0  0  0  0  0  0  0  0
    4.3994   -1.4289    0.6670 H   0  0  0  0  0  0  0  0  0  0  0  0
    4.9600   -1.1755   -2.3396 H   0  0  0  0  0  0  0  0  0  0  0  0
    6.1747   -1.4059   -1.0866 H   0  0  0  0  0  0  0  0  0  0  0  0
    6.1037    0.9494   -1.6841 H   0  0  0  0  0  0  0  0  0  0  0  0
    5.4828    0.7807   -0.0337 H   0  0  0  0  0  0  0  0  0  0  0  0
    4.3655    1.0451   -1.3884 H   0  0  0  0  0  0  0  0  0  0  0  0
   -1.8705   -0.8835   -0.5748 H   0  0  0  0  0  0  0  0  0  0  0  0
   -3.7727    1.6581   -2.2850 H   0  0  0  0  0  0  0  0  0  0  0  0
   -4.9481    0.3305   -4.0154 H   0  0  0  0  0  0  0  0  0  0  0  0
   -6.0625   -1.8029   -3.4032 H   0  0  0  0  0  0  0  0  0  0  0  0
   -6.0063   -2.6008   -1.0594 H   0  0  0  0  0  0  0  0  0  0  0  0
   -2.8921    3.2492    2.3063 H   0  0  0  0  0  0  0  0  0  0  0  0
    1.8198    3.2257    3.1029 H   0  0  0  0  0  0  0  0  0  0  0  0
    1.0976    2.5015    4.5788 H   0  0  0  0  0  0  0  0  0  0  0  0
    1.9008    1.4576    3.3756 H   0  0  0  0  0  0  0  0  0  0  0  0
  1  2  1  0
  2  3  2  3
  3  4  1  0
  4  5  1  0
  5  6  1  0
  6  7  1  0
  7  8  1  0
  2  9  1  0
  9 10  1  0
 10 11  2  3
 11 12  1  0
 12 13  2  0
 13 14  1  0
 14 15  2  0
 15 16  1  0
 16 17  2  0
 17 18  1  0
 10 19  1  0
 19 20  1  0
 20 21  2  0
 21 22  1  0
 22 23  1  0
 22 24  1  0
 24  1  1  0
 17 12  1  0
 24 19  2  0
  1 25  1  0
  4 26  1  0
  4 27  1  0
  5 28  1  0
  5 29  1  0
  6 30  1  0
  6 31  1  0
  7 32  1  0
  7 33  1  0
  8 34  1  0
  8 35  1  0
  8 36  1  0
  9 37  1  0
 13 38  1  0
 14 39  1  0
 15 40  1  0
 16 41  1  0
 20 42  1  0
 23 43  1  0
 23 44  1  0
 23 45  1  0
M  END
>  <ScrubInfo>  (9) 
{"isomerGroup": 0, "isomerId": 8, "confId": 0, "nr_conformers:": 1, "nr_isomers:": 9}

$$$$
