REMARK SMILES CCCCCNc1nc(Nc2ccccc2)c2cnn(C)c2n1
REMARK SMILES IDX 5 1 4 2 3 3 2 4 1 5 6 6 7 8 8 9 23 10 9 11 22 12 17 13 20 14
REMARK SMILES IDX 18 15 19 16 21 17 10 18 11 20 12 21 16 22 13 23 15 24 14 25
REMARK H PARENT 6 7 10 19
ROOT
ATOM      1  C   UNL     1       2.227  -0.048  -0.488  1.00  0.00     0.116 C 
ENDROOT
BRANCH   1   2
ATOM      2  C   UNL     1       3.679  -0.112  -0.007  1.00  0.00     0.021 C 
BRANCH   2   3
ATOM      3  C   UNL     1       3.885   0.242   1.472  1.00  0.00     0.002 C 
BRANCH   3   4
ATOM      4  C   UNL     1       3.081  -0.591   2.474  1.00  0.00    -0.003 C 
ATOM      5  C   UNL     1       3.370  -2.082   2.398  1.00  0.00     0.004 C 
ENDBRANCH   3   4
ENDBRANCH   2   3
ENDBRANCH   1   2
BRANCH   1   6
ATOM      6  N   UNL     1       1.715   1.305  -0.354  1.00  0.00    -0.354 N 
ATOM      7  H   UNL     1       2.237   2.015  -0.857  1.00  0.00     0.163 HD
BRANCH   6   8
ATOM      8  C   UNL     1       0.389   1.458  -0.746  1.00  0.00     0.226 A 
ATOM      9  N   UNL     1      -0.490   0.469  -0.505  1.00  0.00    -0.195 NA
ATOM     10  N   UNL     1       0.108   2.620  -1.347  1.00  0.00    -0.193 NA
ATOM     11  C   UNL     1      -1.796   0.586  -0.859  1.00  0.00     0.147 A 
ATOM     12  C   UNL     1      -1.182   2.722  -1.698  1.00  0.00     0.165 A 
ATOM     13  C   UNL     1      -2.168   1.776  -1.497  1.00  0.00     0.082 A 
ATOM     14  N   UNL     1      -1.792   3.776  -2.322  1.00  0.00    -0.250 N 
ATOM     15  C   UNL     1      -3.330   2.362  -2.043  1.00  0.00     0.149 A 
ATOM     16  N   UNL     1      -3.111   3.579  -2.553  1.00  0.00    -0.179 NA
ATOM     17  C   UNL     1      -1.177   5.014  -2.733  1.00  0.00     0.176 C 
BRANCH  11  18
ATOM     18  N   UNL     1      -2.720  -0.443  -0.626  1.00  0.00    -0.339 N 
ATOM     19  H   UNL     1      -3.641  -0.260  -0.998  1.00  0.00     0.168 HD
BRANCH  18  20
ATOM     20  C   UNL     1      -2.630  -1.641   0.105  1.00  0.00     0.040 A 
ATOM     21  C   UNL     1      -1.553  -1.970   0.934  1.00  0.00     0.026 A 
ATOM     22  C   UNL     1      -3.654  -2.593  -0.040  1.00  0.00     0.026 A 
ATOM     23  C   UNL     1      -1.504  -3.194   1.611  1.00  0.00     0.002 A 
ATOM     24  C   UNL     1      -3.610  -3.818   0.633  1.00  0.00     0.002 A 
ATOM     25  C   UNL     1      -2.533  -4.118   1.461  1.00  0.00     0.000 A 
ENDBRANCH  18  20
ENDBRANCH  11  18
ENDBRANCH   6   8
ENDBRANCH   1   6
TORSDOF 7
