_i0
     RDKit          3D

 45 47  0  0  0  0  0  0  0  0999 V2000
    3.3704   -2.0815    2.3977 C   0  0  0  0  0  0  0  0  0  0  0  0
    3.0813   -0.5907    2.4742 C   0  0  0  0  0  0  0  0  0  0  0  0
    3.8847    0.2419    1.4717 C   0  0  0  0  0  0  0  0  0  0  0  0
    3.6787   -0.1117   -0.0070 C   0  0  0  0  0  0  0  0  0  0  0  0
    2.2268   -0.0483   -0.4880 C   0  0  0  0  0  0  0  0  0  0  0  0
    1.7154    1.3051   -0.3542 N   0  0  0  0  0  0  0  0  0  0  0  0
    0.3894    1.4582   -0.7464 C   0  0  0  0  0  0  0  0  0  0  0  0
   -0.4903    0.4694   -0.5052 N   0  0  0  0  0  0  0  0  0  0  0  0
   -1.7963    0.5863   -0.8587 C   0  0  0  0  0  0  0  0  0  0  0  0
   -2.7205   -0.4433   -0.6265 N   0  0  0  0  0  0  0  0  0  0  0  0
   -2.6301   -1.6411    0.1049 C   0  0  0  0  0  0  0  0  0  0  0  0
   -1.5528   -1.9699    0.9341 C   0  0  0  0  0  0  0  0  0  0  0  0
   -1.5042   -3.1939    1.6108 C   0  0  0  0  0  0  0  0  0  0  0  0
   -2.5332   -4.1181    1.4606 C   0  0  0  0  0  0  0  0  0  0  0  0
   -3.6098   -3.8184    0.6326 C   0  0  0  0  0  0  0  0  0  0  0  0
   -3.6535   -2.5933   -0.0403 C   0  0  0  0  0  0  0  0  0  0  0  0
   -2.1684    1.7760   -1.4971 C   0  0  0  0  0  0  0  0  0  0  0  0
   -3.3299    2.3617   -2.0426 C   0  0  0  0  0  0  0  0  0  0  0  0
   -3.1108    3.5787   -2.5528 N   0  0  0  0  0  0  0  0  0  0  0  0
   -1.7915    3.7765   -2.3218 N   0  0  0  0  0  0  0  0  0  0  0  0
   -1.1774    5.0138   -2.7328 C   0  0  0  0  0  0  0  0  0  0  0  0
   -1.1822    2.7223   -1.6976 C   0  0  0  0  0  0  0  0  0  0  0  0
    0.1082    2.6204   -1.3474 N   0  0  0  0  0  0  0  0  0  0  0  0
    4.4406   -2.2804    2.5114 H   0  0  0  0  0  0  0  0  0  0  0  0
    3.0379   -2.5067    1.4462 H   0  0  0  0  0  0  0  0  0  0  0  0
    2.8409   -2.6081    3.1982 H   0  0  0  0  0  0  0  0  0  0  0  0
    2.0077   -0.4182    2.3408 H   0  0  0  0  0  0  0  0  0  0  0  0
    3.3251   -0.2404    3.4846 H   0  0  0  0  0  0  0  0  0  0  0  0
    3.6418    1.3002    1.6274 H   0  0  0  0  0  0  0  0  0  0  0  0
    4.9527    0.1399    1.7026 H   0  0  0  0  0  0  0  0  0  0  0  0
    4.0703   -1.1175   -0.1991 H   0  0  0  0  0  0  0  0  0  0  0  0
    4.2884    0.5735   -0.6102 H   0  0  0  0  0  0  0  0  0  0  0  0
    1.6256   -0.7671    0.0796 H   0  0  0  0  0  0  0  0  0  0  0  0
    2.1956   -0.3539   -1.5416 H   0  0  0  0  0  0  0  0  0  0  0  0
    2.2371    2.0147   -0.8566 H   0  0  0  0  0  0  0  0  0  0  0  0
   -3.6412   -0.2598   -0.9983 H   0  0  0  0  0  0  0  0  0  0  0  0
   -0.7354   -1.2724    1.0884 H   0  0  0  0  0  0  0  0  0  0  0  0
   -0.6583   -3.4182    2.2554 H   0  0  0  0  0  0  0  0  0  0  0  0
   -2.4940   -5.0685    1.9856 H   0  0  0  0  0  0  0  0  0  0  0  0
   -4.4146   -4.5373    0.5050 H   0  0  0  0  0  0  0  0  0  0  0  0
   -4.5013   -2.3921   -0.6902 H   0  0  0  0  0  0  0  0  0  0  0  0
   -4.3311    1.9544   -2.0911 H   0  0  0  0  0  0  0  0  0  0  0  0
   -1.2825    5.1058   -3.8168 H   0  0  0  0  0  0  0  0  0  0  0  0
   -0.1193    5.0157   -2.4618 H   0  0  0  0  0  0  0  0  0  0  0  0
   -1.6901    5.8364   -2.2279 H   0  0  0  0  0  0  0  0  0  0  0  0
  1  2  1  0
  2  3  1  0
  3  4  1  0
  4  5  1  0
  5  6  1  0
  6  7  1  0
  7  8  2  0
  8  9  1  0
  9 10  1  0
 10 11  1  0
 11 12  2  0
 12 13  1  0
 13 14  2  0
 14 15  1  0
 15 16  2  0
  9 17  2  0
 17 18  1  0
 18 19  2  0
 19 20  1  0
 20 21  1  0
 20 22  1  0
 22 23  2  0
 23  7  1  0
 16 11  1  0
 22 17  1  0
  1 24  1  0
  1 25  1  0
  1 26  1  0
  2 27  1  0
  2 28  1  0
  3 29  1  0
  3 30  1  0
  4 31  1  0
  4 32  1  0
  5 33  1  0
  5 34  1  0
  6 35  1  0
 10 36  1  0
 12 37  1  0
 13 38  1  0
 14 39  1  0
 15 40  1  0
 16 41  1  0
 18 42  1  0
 21 43  1  0
 21 44  1  0
 21 45  1  0
M  END
>  <ScrubInfo>  (1) 
{"isomerGroup": 0, "isomerId": 0, "confId": 0, "nr_conformers:": 1, "nr_isomers:": 9}

$$$$
_i1
     RDKit          3D

 45 47  0  0  0  0  0  0  0  0999 V2000
   -0.1615    0.0603   -1.3065 N   0  0  0  0  0  0  0  0  0  0  0  0
   -1.5055   -0.1469   -1.0730 C   0  0  0  0  0  0  0  0  0  0  0  0
   -2.4478    0.7850   -1.4635 N   0  0  0  0  0  0  0  0  0  0  0  0
   -3.4196    1.4003   -0.6399 C   0  0  0  0  0  0  0  0  0  0  0  0
   -3.4534    1.2672    0.7539 C   0  0  0  0  0  0  0  0  0  0  0  0
   -4.4636    1.8729    1.5075 C   0  0  0  0  0  0  0  0  0  0  0  0
   -5.4586    2.6147    0.8763 C   0  0  0  0  0  0  0  0  0  0  0  0
   -5.4442    2.7521   -0.5085 C   0  0  0  0  0  0  0  0  0  0  0  0
   -4.4331    2.1470   -1.2593 C   0  0  0  0  0  0  0  0  0  0  0  0
   -1.8087   -1.3222   -0.5075 C   0  0  0  0  0  0  0  0  0  0  0  0
   -3.0105   -2.0492   -0.0840 C   0  0  0  0  0  0  0  0  0  0  0  0
   -2.7407   -3.2115    0.4575 N   0  0  0  0  0  0  0  0  0  0  0  0
   -1.3454   -3.3480    0.3731 N   0  0  0  0  0  0  0  0  0  0  0  0
   -0.6954   -4.3908    1.1278 C   0  0  0  0  0  0  0  0  0  0  0  0
   -0.7039   -2.2410   -0.1574 C   0  0  0  0  0  0  0  0  0  0  0  0
    0.5530   -2.0034   -0.3250 N   0  0  0  0  0  0  0  0  0  0  0  0
    0.8396   -0.7876   -0.9055 C   0  0  0  0  0  0  0  0  0  0  0  0
    2.0642   -0.4137   -1.0811 N   0  0  0  0  0  0  0  0  0  0  0  0
    3.1106   -1.3354   -0.6376 C   0  0  0  0  0  0  0  0  0  0  0  0
    4.4808   -0.6948   -0.8708 C   0  0  0  0  0  0  0  0  0  0  0  0
    4.9126    0.3020    0.2119 C   0  0  0  0  0  0  0  0  0  0  0  0
    4.0522    1.5628    0.2859 C   0  0  0  0  0  0  0  0  0  0  0  0
    4.6403    2.5790    1.2537 C   0  0  0  0  0  0  0  0  0  0  0  0
    0.1428    0.9616   -1.6393 H   0  0  0  0  0  0  0  0  0  0  0  0
   -2.0950    1.4445   -2.1518 H   0  0  0  0  0  0  0  0  0  0  0  0
   -2.6832    0.7147    1.2848 H   0  0  0  0  0  0  0  0  0  0  0  0
   -4.4695    1.7665    2.5896 H   0  0  0  0  0  0  0  0  0  0  0  0
   -6.2440    3.0839    1.4633 H   0  0  0  0  0  0  0  0  0  0  0  0
   -6.2222    3.3249   -1.0066 H   0  0  0  0  0  0  0  0  0  0  0  0
   -4.4508    2.2518   -2.3417 H   0  0  0  0  0  0  0  0  0  0  0  0
   -4.0121   -1.6191   -0.2116 H   0  0  0  0  0  0  0  0  0  0  0  0
   -1.3220   -5.2876    1.1704 H   0  0  0  0  0  0  0  0  0  0  0  0
    0.2569   -4.6711    0.6666 H   0  0  0  0  0  0  0  0  0  0  0  0
   -0.5014   -4.0552    2.1512 H   0  0  0  0  0  0  0  0  0  0  0  0
    2.9994   -1.5955    0.4219 H   0  0  0  0  0  0  0  0  0  0  0  0
    3.0597   -2.2563   -1.2317 H   0  0  0  0  0  0  0  0  0  0  0  0
    4.5143   -0.2118   -1.8551 H   0  0  0  0  0  0  0  0  0  0  0  0
    5.2284   -1.4980   -0.8883 H   0  0  0  0  0  0  0  0  0  0  0  0
    4.9164   -0.1978    1.1884 H   0  0  0  0  0  0  0  0  0  0  0  0
    5.9511    0.5910    0.0061 H   0  0  0  0  0  0  0  0  0  0  0  0
    3.9688    2.0193   -0.7069 H   0  0  0  0  0  0  0  0  0  0  0  0
    3.0407    1.3129    0.6221 H   0  0  0  0  0  0  0  0  0  0  0  0
    5.6403    2.8911    0.9360 H   0  0  0  0  0  0  0  0  0  0  0  0
    4.7143    2.1618    2.2631 H   0  0  0  0  0  0  0  0  0  0  0  0
    4.0057    3.4696    1.2995 H   0  0  0  0  0  0  0  0  0  0  0  0
  1  2  1  0
  2  3  1  0
  3  4  1  0
  4  5  2  0
  5  6  1  0
  6  7  2  0
  7  8  1  0
  8  9  2  0
  2 10  2  0
 10 11  1  0
 11 12  2  0
 12 13  1  0
 13 14  1  0
 13 15  1  0
 15 16  2  0
 16 17  1  0
 17 18  2  3
 18 19  1  0
 19 20  1  0
 20 21  1  0
 21 22  1  0
 22 23  1  0
 17  1  1  0
  9  4  1  0
 15 10  1  0
  1 24  1  0
  3 25  1  0
  5 26  1  0
  6 27  1  0
  7 28  1  0
  8 29  1  0
  9 30  1  0
 11 31  1  0
 14 32  1  0
 14 33  1  0
 14 34  1  0
 19 35  1  0
 19 36  1  0
 20 37  1  0
 20 38  1  0
 21 39  1  0
 21 40  1  0
 22 41  1  0
 22 42  1  0
 23 43  1  0
 23 44  1  0
 23 45  1  0
M  END
>  <ScrubInfo>  (2) 
{"isomerGroup": 0, "isomerId": 1, "confId": 0, "nr_conformers:": 1, "nr_isomers:": 9}

$$$$
_i2
     RDKit          3D

 45 47  0  0  0  0  0  0  0  0999 V2000
    0.0260   -0.1197   -0.5600 N   0  0  0  0  0  0  0  0  0  0  0  0
   -0.3588   -1.4245   -0.3878 C   0  0  0  0  0  0  0  0  0  0  0  0
   -1.6530   -1.7248   -0.7085 N   0  0  0  0  0  0  0  0  0  0  0  0
   -2.7778   -0.9321   -0.2274 C   0  0  0  0  0  0  0  0  0  0  0  0
   -4.0850   -1.5384   -0.7325 C   0  0  0  0  0  0  0  0  0  0  0  0
   -5.3465   -0.8944   -0.1477 C   0  0  0  0  0  0  0  0  0  0  0  0
   -5.5452    0.5787   -0.5158 C   0  0  0  0  0  0  0  0  0  0  0  0
   -5.0415    1.5383    0.5530 C   0  0  0  0  0  0  0  0  0  0  0  0
    0.4348   -2.3723    0.0435 N   0  0  0  0  0  0  0  0  0  0  0  0
    1.6814   -1.8928    0.3187 C   0  0  0  0  0  0  0  0  0  0  0  0
    2.1610   -0.5988    0.1759 C   0  0  0  0  0  0  0  0  0  0  0  0
    3.4956   -0.6732    0.6121 C   0  0  0  0  0  0  0  0  0  0  0  0
    3.8465   -1.9058    1.0016 N   0  0  0  0  0  0  0  0  0  0  0  0
    2.7224   -2.6316    0.8064 N   0  0  0  0  0  0  0  0  0  0  0  0
    2.7277   -4.0380    1.1203 C   0  0  0  0  0  0  0  0  0  0  0  0
    1.2703    0.4234   -0.3392 C   0  0  0  0  0  0  0  0  0  0  0  0
    1.5206    1.6717   -0.5943 N   0  0  0  0  0  0  0  0  0  0  0  0
    2.7827    2.2303   -0.3858 C   0  0  0  0  0  0  0  0  0  0  0  0
    3.0809    2.8640    0.8235 C   0  0  0  0  0  0  0  0  0  0  0  0
    4.3326    3.4490    1.0247 C   0  0  0  0  0  0  0  0  0  0  0  0
    5.2872    3.4169    0.0087 C   0  0  0  0  0  0  0  0  0  0  0  0
    4.9879    2.8089   -1.2101 C   0  0  0  0  0  0  0  0  0  0  0  0
    3.7353    2.2249   -1.4085 C   0  0  0  0  0  0  0  0  0  0  0  0
   -0.6095    0.4938   -1.0414 H   0  0  0  0  0  0  0  0  0  0  0  0
   -1.7968   -2.7182   -0.5352 H   0  0  0  0  0  0  0  0  0  0  0  0
   -2.7680   -0.9138    0.8682 H   0  0  0  0  0  0  0  0  0  0  0  0
   -2.6874    0.0951   -0.5922 H   0  0  0  0  0  0  0  0  0  0  0  0
   -4.1164   -1.4797   -1.8280 H   0  0  0  0  0  0  0  0  0  0  0  0
   -4.1079   -2.6081   -0.4860 H   0  0  0  0  0  0  0  0  0  0  0  0
   -6.2027   -1.4566   -0.5427 H   0  0  0  0  0  0  0  0  0  0  0  0
   -5.3675   -1.0295    0.9402 H   0  0  0  0  0  0  0  0  0  0  0  0
   -6.6199    0.7616   -0.6398 H   0  0  0  0  0  0  0  0  0  0  0  0
   -5.0758    0.8075   -1.4790 H   0  0  0  0  0  0  0  0  0  0  0  0
   -3.9668    1.4398    0.7210 H   0  0  0  0  0  0  0  0  0  0  0  0
   -5.2396    2.5720    0.2518 H   0  0  0  0  0  0  0  0  0  0  0  0
   -5.5525    1.3635    1.5054 H   0  0  0  0  0  0  0  0  0  0  0  0
    4.2427    0.1061    0.6714 H   0  0  0  0  0  0  0  0  0  0  0  0
    3.5354   -4.5138    0.5581 H   0  0  0  0  0  0  0  0  0  0  0  0
    1.7725   -4.4897    0.8443 H   0  0  0  0  0  0  0  0  0  0  0  0
    2.8941   -4.1485    2.1948 H   0  0  0  0  0  0  0  0  0  0  0  0
    2.3339    2.8992    1.6115 H   0  0  0  0  0  0  0  0  0  0  0  0
    4.5599    3.9326    1.9710 H   0  0  0  0  0  0  0  0  0  0  0  0
    6.2617    3.8731    0.1636 H   0  0  0  0  0  0  0  0  0  0  0  0
    5.7264    2.7927   -2.0072 H   0  0  0  0  0  0  0  0  0  0  0  0
    3.4994    1.7611   -2.3622 H   0  0  0  0  0  0  0  0  0  0  0  0
  1  2  1  0
  2  3  1  0
  3  4  1  0
  4  5  1  0
  5  6  1  0
  6  7  1  0
  7  8  1  0
  2  9  2  0
  9 10  1  0
 10 11  2  0
 11 12  1  0
 12 13  2  0
 13 14  1  0
 14 15  1  0
 11 16  1  0
 16 17  2  3
 17 18  1  0
 18 19  2  0
 19 20  1  0
 20 21  2  0
 21 22  1  0
 22 23  2  0
 16  1  1  0
 23 18  1  0
 14 10  1  0
  1 24  1  0
  3 25  1  0
  4 26  1  0
  4 27  1  0
  5 28  1  0
  5 29  1  0
  6 30  1  0
  6 31  1  0
  7 32  1  0
  7 33  1  0
  8 34  1  0
  8 35  1  0
  8 36  1  0
 12 37  1  0
 15 38  1  0
 15 39  1  0
 15 40  1  0
 19 41  1  0
 20 42  1  0
 21 43  1  0
 22 44  1  0
 23 45  1  0
M  END
>  <ScrubInfo>  (3) 
{"isomerGroup": 0, "isomerId": 2, "confId": 0, "nr_conformers:": 1, "nr_isomers:": 9}

$$$$
_i3
     RDKit          3D

 45 47  0  0  0  0  0  0  0  0999 V2000
    0.1154   -2.2775    0.1429 N   0  0  0  0  0  0  0  0  0  0  0  0
    0.6025   -0.9880    0.1484 C   0  0  0  0  0  0  0  0  0  0  0  0
    1.8355   -0.8043   -0.1974 N   0  0  0  0  0  0  0  0  0  0  0  0
    2.3311    0.5724   -0.1845 C   0  0  0  0  0  0  0  0  0  0  0  0
    3.7963    0.5527   -0.6229 C   0  0  0  0  0  0  0  0  0  0  0  0
    4.3930    1.9611   -0.6328 C   0  0  0  0  0  0  0  0  0  0  0  0
    5.8268    2.0085   -1.1649 C   0  0  0  0  0  0  0  0  0  0  0  0
    6.8271    1.2796   -0.2810 C   0  0  0  0  0  0  0  0  0  0  0  0
   -0.1904    0.0923    0.5112 N   0  0  0  0  0  0  0  0  0  0  0  0
   -1.4362   -0.1181    0.8381 C   0  0  0  0  0  0  0  0  0  0  0  0
   -2.2817    0.8888    1.2296 N   0  0  0  0  0  0  0  0  0  0  0  0
   -3.4854    1.2260    0.5564 C   0  0  0  0  0  0  0  0  0  0  0  0
   -3.7931    0.7859   -0.7373 C   0  0  0  0  0  0  0  0  0  0  0  0
   -4.9839    1.1750   -1.3571 C   0  0  0  0  0  0  0  0  0  0  0  0
   -5.8745    2.0174   -0.6958 C   0  0  0  0  0  0  0  0  0  0  0  0
   -5.5738    2.4765    0.5838 C   0  0  0  0  0  0  0  0  0  0  0  0
   -4.3838    2.0873    1.2026 C   0  0  0  0  0  0  0  0  0  0  0  0
   -1.9769   -1.4588    0.8750 C   0  0  0  0  0  0  0  0  0  0  0  0
   -3.1851   -2.0858    1.2155 C   0  0  0  0  0  0  0  0  0  0  0  0
   -3.1288   -3.4190    1.0616 N   0  0  0  0  0  0  0  0  0  0  0  0
   -1.8627   -3.6429    0.6291 N   0  0  0  0  0  0  0  0  0  0  0  0
   -1.4387   -4.9941    0.3658 C   0  0  0  0  0  0  0  0  0  0  0  0
   -1.1550   -2.4902    0.5145 C   0  0  0  0  0  0  0  0  0  0  0  0
    0.7896   -2.9829   -0.1222 H   0  0  0  0  0  0  0  0  0  0  0  0
    1.7546    1.1968   -0.8779 H   0  0  0  0  0  0  0  0  0  0  0  0
    2.2618    0.9991    0.8235 H   0  0  0  0  0  0  0  0  0  0  0  0
    4.3636   -0.0955    0.0552 H   0  0  0  0  0  0  0  0  0  0  0  0
    3.8732    0.1091   -1.6234 H   0  0  0  0  0  0  0  0  0  0  0  0
    3.7722    2.6089   -1.2642 H   0  0  0  0  0  0  0  0  0  0  0  0
    4.3622    2.3833    0.3791 H   0  0  0  0  0  0  0  0  0  0  0  0
    6.1329    3.0585   -1.2437 H   0  0  0  0  0  0  0  0  0  0  0  0
    5.8631    1.5913   -2.1779 H   0  0  0  0  0  0  0  0  0  0  0  0
    7.8429    1.4312   -0.6601 H   0  0  0  0  0  0  0  0  0  0  0  0
    6.6380    0.2023   -0.2646 H   0  0  0  0  0  0  0  0  0  0  0  0
    6.7898    1.6542    0.7467 H   0  0  0  0  0  0  0  0  0  0  0  0
   -1.7459    1.7480    1.3364 H   0  0  0  0  0  0  0  0  0  0  0  0
   -3.1111    0.1443   -1.2897 H   0  0  0  0  0  0  0  0  0  0  0  0
   -5.2124    0.8218   -2.3597 H   0  0  0  0  0  0  0  0  0  0  0  0
   -6.8004    2.3183   -1.1795 H   0  0  0  0  0  0  0  0  0  0  0  0
   -6.2652    3.1362    1.1017 H   0  0  0  0  0  0  0  0  0  0  0  0
   -4.1665    2.4502    2.2047 H   0  0  0  0  0  0  0  0  0  0  0  0
   -4.1058   -1.6378    1.5671 H   0  0  0  0  0  0  0  0  0  0  0  0
   -1.4908   -5.5590    1.2999 H   0  0  0  0  0  0  0  0  0  0  0  0
   -2.1092   -5.4269   -0.3810 H   0  0  0  0  0  0  0  0  0  0  0  0
   -0.4145   -4.9961   -0.0129 H   0  0  0  0  0  0  0  0  0  0  0  0
  1  2  1  0
  2  3  2  3
  3  4  1  0
  4  5  1  0
  5  6  1  0
  6  7  1  0
  7  8  1  0
  2  9  1  0
  9 10  2  0
 10 11  1  0
 11 12  1  0
 12 13  2  0
 13 14  1  0
 14 15  2  0
 15 16  1  0
 16 17  2  0
 10 18  1  0
 18 19  1  0
 19 20  2  0
 20 21  1  0
 21 22  1  0
 21 23  1  0
 23  1  1  0
 17 12  1  0
 23 18  2  0
  1 24  1  0
  4 25  1  0
  4 26  1  0
  5 27  1  0
  5 28  1  0
  6 29  1  0
  6 30  1  0
  7 31  1  0
  7 32  1  0
  8 33  1  0
  8 34  1  0
  8 35  1  0
 11 36  1  0
 13 37  1  0
 14 38  1  0
 15 39  1  0
 16 40  1  0
 17 41  1  0
 19 42  1  0
 22 43  1  0
 22 44  1  0
 22 45  1  0
M  END
>  <ScrubInfo>  (4) 
{"isomerGroup": 0, "isomerId": 3, "confId": 0, "nr_conformers:": 1, "nr_isomers:": 9}

$$$$
_i4
     RDKit          3D

 45 47  0  0  0  0  0  0  0  0999 V2000
   -3.5653   -2.7430    0.2966 N   0  0  0  0  0  0  0  0  0  0  0  0
   -3.3272   -1.3737    0.3544 C   0  0  0  0  0  0  0  0  0  0  0  0
   -2.0245   -1.0546    0.3136 C   0  0  0  0  0  0  0  0  0  0  0  0
   -1.1756    0.1298    0.3137 C   0  0  0  0  0  0  0  0  0  0  0  0
   -1.4743    1.3804    0.4371 N   0  0  0  0  0  0  0  0  0  0  0  0
   -2.8001    1.7820    0.6100 C   0  0  0  0  0  0  0  0  0  0  0  0
   -3.5806    2.1295   -0.4959 C   0  0  0  0  0  0  0  0  0  0  0  0
   -4.9021    2.5465   -0.3253 C   0  0  0  0  0  0  0  0  0  0  0  0
   -5.4446    2.6330    0.9565 C   0  0  0  0  0  0  0  0  0  0  0  0
   -4.6640    2.3129    2.0669 C   0  0  0  0  0  0  0  0  0  0  0  0
   -3.3429    1.8960    1.8929 C   0  0  0  0  0  0  0  0  0  0  0  0
    0.1559   -0.1454    0.1540 N   0  0  0  0  0  0  0  0  0  0  0  0
    0.6353   -1.3479    0.0724 C   0  0  0  0  0  0  0  0  0  0  0  0
    1.9727   -1.5581   -0.0939 N   0  0  0  0  0  0  0  0  0  0  0  0
    2.9825   -0.5410    0.1011 C   0  0  0  0  0  0  0  0  0  0  0  0
    3.2034    0.2412   -1.1935 C   0  0  0  0  0  0  0  0  0  0  0  0
    4.1828    1.4078   -1.0390 C   0  0  0  0  0  0  0  0  0  0  0  0
    5.6105    0.9647   -0.7172 C   0  0  0  0  0  0  0  0  0  0  0  0
    6.5646    2.1490   -0.6864 C   0  0  0  0  0  0  0  0  0  0  0  0
   -0.1006   -2.4998    0.1477 N   0  0  0  0  0  0  0  0  0  0  0  0
   -1.3764   -2.3786    0.2692 C   0  0  0  0  0  0  0  0  0  0  0  0
   -2.3379   -3.3866    0.3648 N   0  0  0  0  0  0  0  0  0  0  0  0
   -2.1653   -4.6467   -0.3325 C   0  0  0  0  0  0  0  0  0  0  0  0
   -4.2771   -3.0569    0.9604 H   0  0  0  0  0  0  0  0  0  0  0  0
   -4.1761   -0.7099    0.4288 H   0  0  0  0  0  0  0  0  0  0  0  0
   -3.1505    2.0782   -1.4926 H   0  0  0  0  0  0  0  0  0  0  0  0
   -5.5018    2.8139   -1.1913 H   0  0  0  0  0  0  0  0  0  0  0  0
   -6.4707    2.9661    1.0909 H   0  0  0  0  0  0  0  0  0  0  0  0
   -5.0778    2.3993    3.0681 H   0  0  0  0  0  0  0  0  0  0  0  0
   -2.7271    1.6647    2.7579 H   0  0  0  0  0  0  0  0  0  0  0  0
    2.2513   -2.5174    0.0617 H   0  0  0  0  0  0  0  0  0  0  0  0
    2.7076    0.1290    0.9241 H   0  0  0  0  0  0  0  0  0  0  0  0
    3.9118   -1.0394    0.3965 H   0  0  0  0  0  0  0  0  0  0  0  0
    3.5571   -0.4377   -1.9798 H   0  0  0  0  0  0  0  0  0  0  0  0
    2.2470    0.6454   -1.5476 H   0  0  0  0  0  0  0  0  0  0  0  0
    3.8215    2.0898   -0.2596 H   0  0  0  0  0  0  0  0  0  0  0  0
    4.1875    1.9763   -1.9775 H   0  0  0  0  0  0  0  0  0  0  0  0
    5.6438    0.4637    0.2560 H   0  0  0  0  0  0  0  0  0  0  0  0
    5.9558    0.2447   -1.4680 H   0  0  0  0  0  0  0  0  0  0  0  0
    6.2627    2.8760    0.0744 H   0  0  0  0  0  0  0  0  0  0  0  0
    7.5791    1.8122   -0.4511 H   0  0  0  0  0  0  0  0  0  0  0  0
    6.5920    2.6567   -1.6559 H   0  0  0  0  0  0  0  0  0  0  0  0
   -1.2185   -5.1175   -0.0491 H   0  0  0  0  0  0  0  0  0  0  0  0
   -2.1712   -4.4958   -1.4171 H   0  0  0  0  0  0  0  0  0  0  0  0
   -2.9729   -5.3390   -0.0732 H   0  0  0  0  0  0  0  0  0  0  0  0
  1  2  1  0
  2  3  2  0
  3  4  1  0
  4  5  2  3
  5  6  1  0
  6  7  2  0
  7  8  1  0
  8  9  2  0
  9 10  1  0
 10 11  2  0
  4 12  1  0
 12 13  2  0
 13 14  1  0
 14 15  1  0
 15 16  1  0
 16 17  1  0
 17 18  1  0
 18 19  1  0
 13 20  1  0
 20 21  2  0
 21 22  1  0
 22 23  1  0
 22  1  1  0
 21  3  1  0
 11  6  1  0
  1 24  1  0
  2 25  1  0
  7 26  1  0
  8 27  1  0
  9 28  1  0
 10 29  1  0
 11 30  1  0
 14 31  1  0
 15 32  1  0
 15 33  1  0
 16 34  1  0
 16 35  1  0
 17 36  1  0
 17 37  1  0
 18 38  1  0
 18 39  1  0
 19 40  1  0
 19 41  1  0
 19 42  1  0
 23 43  1  0
 23 44  1  0
 23 45  1  0
M  END
>  <ScrubInfo>  (5) 
{"isomerGroup": 0, "isomerId": 4, "confId": 0, "nr_conformers:": 1, "nr_isomers:": 9}

$$$$
_i5
     RDKit          3D

 45 47  0  0  0  0  0  0  0  0999 V2000
    0.5183   -0.4584    0.7238 N   0  0  0  0  0  0  0  0  0  0  0  0
    0.5674    0.6826   -0.0359 C   0  0  0  0  0  0  0  0  0  0  0  0
    1.8120    1.2246   -0.1844 N   0  0  0  0  0  0  0  0  0  0  0  0
    2.6221    1.5909    0.9703 C   0  0  0  0  0  0  0  0  0  0  0  0
    4.0027    2.0803    0.5294 C   0  0  0  0  0  0  0  0  0  0  0  0
    5.0082    0.9632    0.2230 C   0  0  0  0  0  0  0  0  0  0  0  0
    4.6479    0.1072   -0.9906 C   0  0  0  0  0  0  0  0  0  0  0  0
    5.7706   -0.8584   -1.3404 C   0  0  0  0  0  0  0  0  0  0  0  0
   -0.4483    1.2475   -0.6223 N   0  0  0  0  0  0  0  0  0  0  0  0
   -1.7194    0.6999   -0.4845 C   0  0  0  0  0  0  0  0  0  0  0  0
   -2.6819    1.3577   -1.0487 N   0  0  0  0  0  0  0  0  0  0  0  0
   -4.0098    0.9371   -0.9933 C   0  0  0  0  0  0  0  0  0  0  0  0
   -4.8419    1.3558    0.0487 C   0  0  0  0  0  0  0  0  0  0  0  0
   -6.1790    0.9560    0.0895 C   0  0  0  0  0  0  0  0  0  0  0  0
   -6.6952    0.1488   -0.9238 C   0  0  0  0  0  0  0  0  0  0  0  0
   -5.8788   -0.2496   -1.9818 C   0  0  0  0  0  0  0  0  0  0  0  0
   -4.5420    0.1517   -2.0196 C   0  0  0  0  0  0  0  0  0  0  0  0
   -1.8142   -0.5400    0.2705 C   0  0  0  0  0  0  0  0  0  0  0  0
   -2.8064   -1.4728    0.6243 C   0  0  0  0  0  0  0  0  0  0  0  0
   -2.3259   -2.4972    1.3485 N   0  0  0  0  0  0  0  0  0  0  0  0
   -1.0078   -2.2195    1.4612 N   0  0  0  0  0  0  0  0  0  0  0  0
   -0.1612   -3.1266    2.1930 C   0  0  0  0  0  0  0  0  0  0  0  0
   -0.6773   -1.0603    0.8367 C   0  0  0  0  0  0  0  0  0  0  0  0
    1.4003   -0.9078    0.9278 H   0  0  0  0  0  0  0  0  0  0  0  0
    1.7212    2.0185   -0.8184 H   0  0  0  0  0  0  0  0  0  0  0  0
    2.7282    0.7523    1.6671 H   0  0  0  0  0  0  0  0  0  0  0  0
    2.1124    2.4008    1.5056 H   0  0  0  0  0  0  0  0  0  0  0  0
    3.9184    2.7515   -0.3341 H   0  0  0  0  0  0  0  0  0  0  0  0
    4.4230    2.6769    1.3491 H   0  0  0  0  0  0  0  0  0  0  0  0
    5.9861    1.4307    0.0516 H   0  0  0  0  0  0  0  0  0  0  0  0
    5.1208    0.3207    1.1050 H   0  0  0  0  0  0  0  0  0  0  0  0
    4.4439    0.7487   -1.8553 H   0  0  0  0  0  0  0  0  0  0  0  0
    3.7435   -0.4759   -0.7891 H   0  0  0  0  0  0  0  0  0  0  0  0
    5.9832   -1.5320   -0.5040 H   0  0  0  0  0  0  0  0  0  0  0  0
    5.4901   -1.4680   -2.2051 H   0  0  0  0  0  0  0  0  0  0  0  0
    6.6897   -0.3186   -1.5898 H   0  0  0  0  0  0  0  0  0  0  0  0
   -4.4435    1.9983    0.8292 H   0  0  0  0  0  0  0  0  0  0  0  0
   -6.8175    1.2811    0.9065 H   0  0  0  0  0  0  0  0  0  0  0  0
   -7.7373   -0.1596   -0.8954 H   0  0  0  0  0  0  0  0  0  0  0  0
   -6.2828   -0.8651   -2.7811 H   0  0  0  0  0  0  0  0  0  0  0  0
   -3.9092   -0.1448   -2.8517 H   0  0  0  0  0  0  0  0  0  0  0  0
   -3.8623   -1.4725    0.3907 H   0  0  0  0  0  0  0  0  0  0  0  0
    0.8318   -2.6901    2.3189 H   0  0  0  0  0  0  0  0  0  0  0  0
   -0.6093   -3.3060    3.1737 H   0  0  0  0  0  0  0  0  0  0  0  0
   -0.0908   -4.0596    1.6284 H   0  0  0  0  0  0  0  0  0  0  0  0
  1  2  1  0
  2  3  1  0
  3  4  1  0
  4  5  1  0
  5  6  1  0
  6  7  1  0
  7  8  1  0
  2  9  2  0
  9 10  1  0
 10 11  2  3
 11 12  1  0
 12 13  2  0
 13 14  1  0
 14 15  2  0
 15 16  1  0
 16 17  2  0
 10 18  1  0
 18 19  1  0
 19 20  2  0
 20 21  1  0
 21 22  1  0
 21 23  1  0
 23  1  1  0
 17 12  1  0
 23 18  2  0
  1 24  1  0
  3 25  1  0
  4 26  1  0
  4 27  1  0
  5 28  1  0
  5 29  1  0
  6 30  1  0
  6 31  1  0
  7 32  1  0
  7 33  1  0
  8 34  1  0
  8 35  1  0
  8 36  1  0
 13 37  1  0
 14 38  1  0
 15 39  1  0
 16 40  1  0
 17 41  1  0
 19 42  1  0
 22 43  1  0
 22 44  1  0
 22 45  1  0
M  END
>  <ScrubInfo>  (6) 
{"isomerGroup": 0, "isomerId": 5, "confId": 0, "nr_conformers:": 1, "nr_isomers:": 9}

$$$$
_i6
     RDKit          3D

 45 47  0  0  0  0  0  0  0  0999 V2000
   -2.4658   -4.6721    0.2785 N   0  0  0  0  0  0  0  0  0  0  0  0
   -2.8171   -3.3367    0.4455 C   0  0  0  0  0  0  0  0  0  0  0  0
   -1.8494   -2.4895    0.0669 C   0  0  0  0  0  0  0  0  0  0  0  0
   -1.6150   -1.0420    0.0185 C   0  0  0  0  0  0  0  0  0  0  0  0
   -2.6160   -0.1887    0.4478 N   0  0  0  0  0  0  0  0  0  0  0  0
   -2.6787    1.2180    0.4244 C   0  0  0  0  0  0  0  0  0  0  0  0
   -3.6735    1.8535    1.1893 C   0  0  0  0  0  0  0  0  0  0  0  0
   -3.7798    3.2473    1.2359 C   0  0  0  0  0  0  0  0  0  0  0  0
   -2.8866    4.0356    0.5192 C   0  0  0  0  0  0  0  0  0  0  0  0
   -1.8920    3.4283   -0.2402 C   0  0  0  0  0  0  0  0  0  0  0  0
   -1.7907    2.0329   -0.2831 C   0  0  0  0  0  0  0  0  0  0  0  0
   -0.4518   -0.6491   -0.4167 N   0  0  0  0  0  0  0  0  0  0  0  0
    0.5019   -1.5765   -0.7800 C   0  0  0  0  0  0  0  0  0  0  0  0
    1.6858   -1.1866   -1.0948 N   0  0  0  0  0  0  0  0  0  0  0  0
    1.9980    0.2402   -1.0913 C   0  0  0  0  0  0  0  0  0  0  0  0
    2.4416    0.6789    0.3038 C   0  0  0  0  0  0  0  0  0  0  0  0
    2.6591    2.1900    0.4239 C   0  0  0  0  0  0  0  0  0  0  0  0
    3.7161    2.7842   -0.5096 C   0  0  0  0  0  0  0  0  0  0  0  0
    5.1050    2.2006   -0.3035 C   0  0  0  0  0  0  0  0  0  0  0  0
    0.3389   -2.9394   -0.8423 N   0  0  0  0  0  0  0  0  0  0  0  0
   -0.7962   -3.3919   -0.4437 C   0  0  0  0  0  0  0  0  0  0  0  0
   -1.2482   -4.7106   -0.3920 N   0  0  0  0  0  0  0  0  0  0  0  0
   -0.3274   -5.8020   -0.1354 C   0  0  0  0  0  0  0  0  0  0  0  0
   -3.2113   -5.2484   -0.1194 H   0  0  0  0  0  0  0  0  0  0  0  0
   -3.7943   -3.1055    0.8422 H   0  0  0  0  0  0  0  0  0  0  0  0
   -3.4337   -0.6150    0.8614 H   0  0  0  0  0  0  0  0  0  0  0  0
   -4.3799    1.2667    1.7712 H   0  0  0  0  0  0  0  0  0  0  0  0
   -4.5564    3.7142    1.8358 H   0  0  0  0  0  0  0  0  0  0  0  0
   -2.9622    5.1191    0.5528 H   0  0  0  0  0  0  0  0  0  0  0  0
   -1.1882    4.0356   -0.8039 H   0  0  0  0  0  0  0  0  0  0  0  0
   -1.0081    1.6045   -0.9000 H   0  0  0  0  0  0  0  0  0  0  0  0
    1.1683    0.8521   -1.4616 H   0  0  0  0  0  0  0  0  0  0  0  0
    2.8171    0.3939   -1.8027 H   0  0  0  0  0  0  0  0  0  0  0  0
    1.6826    0.3892    1.0412 H   0  0  0  0  0  0  0  0  0  0  0  0
    3.3524    0.1390    0.5888 H   0  0  0  0  0  0  0  0  0  0  0  0
    2.9330    2.4188    1.4614 H   0  0  0  0  0  0  0  0  0  0  0  0
    1.7059    2.7008    0.2383 H   0  0  0  0  0  0  0  0  0  0  0  0
    3.7630    3.8655   -0.3315 H   0  0  0  0  0  0  0  0  0  0  0  0
    3.4167    2.6574   -1.5557 H   0  0  0  0  0  0  0  0  0  0  0  0
    5.8319    2.7325   -0.9258 H   0  0  0  0  0  0  0  0  0  0  0  0
    5.1413    1.1436   -0.5826 H   0  0  0  0  0  0  0  0  0  0  0  0
    5.4200    2.2949    0.7405 H   0  0  0  0  0  0  0  0  0  0  0  0
    0.4915   -5.7945   -0.8618 H   0  0  0  0  0  0  0  0  0  0  0  0
    0.0956   -5.7252    0.8717 H   0  0  0  0  0  0  0  0  0  0  0  0
   -0.8434   -6.7635   -0.2236 H   0  0  0  0  0  0  0  0  0  0  0  0
  1  2  1  0
  2  3  2  0
  3  4  1  0
  4  5  1  0
  5  6  1  0
  6  7  2  0
  7  8  1  0
  8  9  2  0
  9 10  1  0
 10 11  2  0
  4 12  2  0
 12 13  1  0
 13 14  2  3
 14 15  1  0
 15 16  1  0
 16 17  1  0
 17 18  1  0
 18 19  1  0
 13 20  1  0
 20 21  2  0
 21 22  1  0
 22 23  1  0
 22  1  1  0
 21  3  1  0
 11  6  1  0
  1 24  1  0
  2 25  1  0
  5 26  1  0
  7 27  1  0
  8 28  1  0
  9 29  1  0
 10 30  1  0
 11 31  1  0
 15 32  1  0
 15 33  1  0
 16 34  1  0
 16 35  1  0
 17 36  1  0
 17 37  1  0
 18 38  1  0
 18 39  1  0
 19 40  1  0
 19 41  1  0
 19 42  1  0
 23 43  1  0
 23 44  1  0
 23 45  1  0
M  END
>  <ScrubInfo>  (7) 
{"isomerGroup": 0, "isomerId": 6, "confId": 0, "nr_conformers:": 1, "nr_isomers:": 9}

$$$$
_i7
     RDKit          3D

 45 47  0  0  0  0  0  0  0  0999 V2000
   -3.1441   -2.9495   -0.8058 N   0  0  0  0  0  0  0  0  0  0  0  0
   -3.2783   -1.6103   -0.4572 C   0  0  0  0  0  0  0  0  0  0  0  0
   -2.1095   -0.9590   -0.3733 C   0  0  0  0  0  0  0  0  0  0  0  0
   -1.5744    0.3727   -0.0366 C   0  0  0  0  0  0  0  0  0  0  0  0
   -2.2099    1.4627    0.2801 N   0  0  0  0  0  0  0  0  0  0  0  0
   -3.6064    1.4852    0.3316 C   0  0  0  0  0  0  0  0  0  0  0  0
   -4.2717    1.2265    1.5329 C   0  0  0  0  0  0  0  0  0  0  0  0
   -5.6661    1.2678    1.5911 C   0  0  0  0  0  0  0  0  0  0  0  0
   -6.4014    1.5839    0.4491 C   0  0  0  0  0  0  0  0  0  0  0  0
   -5.7434    1.8670   -0.7474 C   0  0  0  0  0  0  0  0  0  0  0  0
   -4.3489    1.8247   -0.8026 C   0  0  0  0  0  0  0  0  0  0  0  0
   -0.2053    0.4143   -0.0733 N   0  0  0  0  0  0  0  0  0  0  0  0
    0.6501   -0.6118   -0.3873 C   0  0  0  0  0  0  0  0  0  0  0  0
    1.9353   -0.5609   -0.3865 N   0  0  0  0  0  0  0  0  0  0  0  0
    2.6019    0.6818   -0.0213 C   0  0  0  0  0  0  0  0  0  0  0  0
    4.1120    0.4537   -0.0944 C   0  0  0  0  0  0  0  0  0  0  0  0
    4.8845    1.7195    0.2808 C   0  0  0  0  0  0  0  0  0  0  0  0
    6.3995    1.5746    0.1222 C   0  0  0  0  0  0  0  0  0  0  0  0
    7.0170    0.5675    1.0800 C   0  0  0  0  0  0  0  0  0  0  0  0
    0.1636   -1.8489   -0.7543 N   0  0  0  0  0  0  0  0  0  0  0  0
   -1.1202   -2.0209   -0.7663 C   0  0  0  0  0  0  0  0  0  0  0  0
   -1.8128   -3.1812   -1.1199 N   0  0  0  0  0  0  0  0  0  0  0  0
   -1.2429   -4.4924   -0.8747 C   0  0  0  0  0  0  0  0  0  0  0  0
   -3.8301   -3.2594   -1.4977 H   0  0  0  0  0  0  0  0  0  0  0  0
   -4.2730   -1.2244   -0.2890 H   0  0  0  0  0  0  0  0  0  0  0  0
   -3.6986    0.9942    2.4263 H   0  0  0  0  0  0  0  0  0  0  0  0
   -6.1761    1.0627    2.5287 H   0  0  0  0  0  0  0  0  0  0  0  0
   -7.4869    1.6233    0.4952 H   0  0  0  0  0  0  0  0  0  0  0  0
   -6.3138    2.1306   -1.6342 H   0  0  0  0  0  0  0  0  0  0  0  0
   -3.8359    2.0606   -1.7309 H   0  0  0  0  0  0  0  0  0  0  0  0
    0.1934    1.3063    0.1684 H   0  0  0  0  0  0  0  0  0  0  0  0
    2.3289    0.9802    0.9980 H   0  0  0  0  0  0  0  0  0  0  0  0
    2.3214    1.4853   -0.7127 H   0  0  0  0  0  0  0  0  0  0  0  0
    4.3823   -0.3693    0.5774 H   0  0  0  0  0  0  0  0  0  0  0  0
    4.3860    0.1377   -1.1086 H   0  0  0  0  0  0  0  0  0  0  0  0
    4.6486    2.0049    1.3132 H   0  0  0  0  0  0  0  0  0  0  0  0
    4.5511    2.5458   -0.3592 H   0  0  0  0  0  0  0  0  0  0  0  0
    6.8620    2.5528    0.3005 H   0  0  0  0  0  0  0  0  0  0  0  0
    6.6418    1.2933   -0.9092 H   0  0  0  0  0  0  0  0  0  0  0  0
    8.1076    0.5802    0.9860 H   0  0  0  0  0  0  0  0  0  0  0  0
    6.6788   -0.4504    0.8653 H   0  0  0  0  0  0  0  0  0  0  0  0
    6.7639    0.8056    2.1179 H   0  0  0  0  0  0  0  0  0  0  0  0
   -1.1348   -4.6747    0.1996 H   0  0  0  0  0  0  0  0  0  0  0  0
   -0.2591   -4.5805   -1.3467 H   0  0  0  0  0  0  0  0  0  0  0  0
   -1.8859   -5.2718   -1.2966 H   0  0  0  0  0  0  0  0  0  0  0  0
  1  2  1  0
  2  3  2  0
  3  4  1  0
  4  5  2  3
  5  6  1  0
  6  7  2  0
  7  8  1  0
  8  9  2  0
  9 10  1  0
 10 11  2  0
  4 12  1  0
 12 13  1  0
 13 14  2  3
 14 15  1  0
 15 16  1  0
 16 17  1  0
 17 18  1  0
 18 19  1  0
 13 20  1  0
 20 21  2  0
 21 22  1  0
 22 23  1  0
 22  1  1  0
 21  3  1  0
 11  6  1  0
  1 24  1  0
  2 25  1  0
  7 26  1  0
  8 27  1  0
  9 28  1  0
 10 29  1  0
 11 30  1  0
 12 31  1  0
 15 32  1  0
 15 33  1  0
 16 34  1  0
 16 35  1  0
 17 36  1  0
 17 37  1  0
 18 38  1  0
 18 39  1  0
 19 40  1  0
 19 41  1  0
 19 42  1  0
 23 43  1  0
 23 44  1  0
 23 45  1  0
M  END
>  <ScrubInfo>  (8) 
{"isomerGroup": 0, "isomerId": 7, "confId": 0, "nr_conformers:": 1, "nr_isomers:": 9}

$$$$
_i8
     RDKit          3D

 45 47  0  0  0  0  0  0  0  0999 V2000
    0.3384    0.8434   -1.0134 N   0  0  0  0  0  0  0  0  0  0  0  0
    0.7223   -0.4864   -1.0522 C   0  0  0  0  0  0  0  0  0  0  0  0
    1.8730   -0.9753   -1.3654 N   0  0  0  0  0  0  0  0  0  0  0  0
    2.9671   -0.0957   -1.7634 C   0  0  0  0  0  0  0  0  0  0  0  0
    3.7272    0.4221   -0.5417 C   0  0  0  0  0  0  0  0  0  0  0  0
    4.4368   -0.6990    0.2248 C   0  0  0  0  0  0  0  0  0  0  0  0
    5.1508   -0.2103    1.4875 C   0  0  0  0  0  0  0  0  0  0  0  0
    6.3169    0.7240    1.2045 C   0  0  0  0  0  0  0  0  0  0  0  0
   -0.2866   -1.3540   -0.6959 N   0  0  0  0  0  0  0  0  0  0  0  0
   -1.5938   -1.1405   -0.3151 C   0  0  0  0  0  0  0  0  0  0  0  0
   -2.3778   -2.1340   -0.0215 N   0  0  0  0  0  0  0  0  0  0  0  0
   -3.7047   -1.9474    0.3679 C   0  0  0  0  0  0  0  0  0  0  0  0
   -4.7273   -1.9588   -0.5846 C   0  0  0  0  0  0  0  0  0  0  0  0
   -6.0584   -1.8014   -0.1939 C   0  0  0  0  0  0  0  0  0  0  0  0
   -6.3742   -1.6488    1.1558 C   0  0  0  0  0  0  0  0  0  0  0  0
   -5.3617   -1.6631    2.1146 C   0  0  0  0  0  0  0  0  0  0  0  0
   -4.0314   -1.8208    1.7209 C   0  0  0  0  0  0  0  0  0  0  0  0
   -1.9014    0.2802   -0.3039 C   0  0  0  0  0  0  0  0  0  0  0  0
   -3.0126    1.0963   -0.0203 C   0  0  0  0  0  0  0  0  0  0  0  0
   -2.7525    2.4037   -0.1738 N   0  0  0  0  0  0  0  0  0  0  0  0
   -1.4570    2.4318   -0.5527 N   0  0  0  0  0  0  0  0  0  0  0  0
   -0.8272    3.7010   -0.8165 C   0  0  0  0  0  0  0  0  0  0  0  0
   -0.9194    1.1849   -0.6492 C   0  0  0  0  0  0  0  0  0  0  0  0
    1.0400    1.5319   -1.2461 H   0  0  0  0  0  0  0  0  0  0  0  0
    3.6483   -0.6654   -2.4064 H   0  0  0  0  0  0  0  0  0  0  0  0
    2.6140    0.7409   -2.3771 H   0  0  0  0  0  0  0  0  0  0  0  0
    4.4655    1.1534   -0.8891 H   0  0  0  0  0  0  0  0  0  0  0  0
    3.0431    0.9506    0.1324 H   0  0  0  0  0  0  0  0  0  0  0  0
    5.1571   -1.1989   -0.4342 H   0  0  0  0  0  0  0  0  0  0  0  0
    3.7040   -1.4576    0.5249 H   0  0  0  0  0  0  0  0  0  0  0  0
    4.4354    0.2893    2.1511 H   0  0  0  0  0  0  0  0  0  0  0  0
    5.5299   -1.0840    2.0311 H   0  0  0  0  0  0  0  0  0  0  0  0
    7.0315    0.2635    0.5151 H   0  0  0  0  0  0  0  0  0  0  0  0
    5.9781    1.6699    0.7723 H   0  0  0  0  0  0  0  0  0  0  0  0
    6.8456    0.9565    2.1346 H   0  0  0  0  0  0  0  0  0  0  0  0
   -0.0164   -2.3267   -0.7194 H   0  0  0  0  0  0  0  0  0  0  0  0
   -4.4830   -2.0913   -1.6350 H   0  0  0  0  0  0  0  0  0  0  0  0
   -6.8472   -1.8045   -0.9415 H   0  0  0  0  0  0  0  0  0  0  0  0
   -7.4106   -1.5292    1.4615 H   0  0  0  0  0  0  0  0  0  0  0  0
   -5.6068   -1.5584    3.1681 H   0  0  0  0  0  0  0  0  0  0  0  0
   -3.2442   -1.8456    2.4692 H   0  0  0  0  0  0  0  0  0  0  0  0
   -4.0090    0.8140    0.2911 H   0  0  0  0  0  0  0  0  0  0  0  0
   -1.2882    4.4676   -0.1879 H   0  0  0  0  0  0  0  0  0  0  0  0
   -0.9712    3.9386   -1.8731 H   0  0  0  0  0  0  0  0  0  0  0  0
    0.2375    3.6334   -0.5814 H   0  0  0  0  0  0  0  0  0  0  0  0
  1  2  1  0
  2  3  2  3
  3  4  1  0
  4  5  1  0
  5  6  1  0
  6  7  1  0
  7  8  1  0
  2  9  1  0
  9 10  1  0
 10 11  2  3
 11 12  1  0
 12 13  2  0
 13 14  1  0
 14 15  2  0
 15 16  1  0
 16 17  2  0
 10 18  1  0
 18 19  1  0
 19 20  2  0
 20 21  1  0
 21 22  1  0
 21 23  1  0
 23  1  1  0
 17 12  1  0
 23 18  2  0
  1 24  1  0
  4 25  1  0
  4 26  1  0
  5 27  1  0
  5 28  1  0
  6 29  1  0
  6 30  1  0
  7 31  1  0
  7 32  1  0
  8 33  1  0
  8 34  1  0
  8 35  1  0
  9 36  1  0
 13 37  1  0
 14 38  1  0
 15 39  1  0
 16 40  1  0
 17 41  1  0
 19 42  1  0
 22 43  1  0
 22 44  1  0
 22 45  1  0
M  END
>  <ScrubInfo>  (9) 
{"isomerGroup": 0, "isomerId": 8, "confId": 0, "nr_conformers:": 1, "nr_isomers:": 9}

$$$$
