REMARK SMILES C[NH+](C)CCCNc1nc(-c2ccc(Cl)cc2)nc2c1CCC2
REMARK SMILES IDX 6 1 5 2 4 3 2 4 1 5 3 6 7 8 8 10 9 11 20 12 10 13 19 14
REMARK SMILES IDX 21 15 18 16 23 17 22 18 11 19 12 20 17 21 13 22 16 23 14 24
REMARK SMILES IDX 15 25
REMARK H PARENT 2 7 7 9
ROOT
ATOM      1  C   UNL     1      -1.302  -0.041  -0.004  1.00  0.00     0.120 C 
ENDROOT
BRANCH   1   2
ATOM      2  C   UNL     1      -2.756  -0.472   0.193  1.00  0.00     0.082 C 
BRANCH   2   3
ATOM      3  C   UNL     1      -3.504   0.558   1.030  1.00  0.00     0.263 C 
BRANCH   3   4
ATOM      4  N   UNL     1      -4.899   0.069   1.374  1.00  0.00    -0.340 N 
ATOM      5  C   UNL     1      -5.495   0.871   2.504  1.00  0.00     0.332 C 
ATOM      6  C   UNL     1      -5.835   0.029   0.196  1.00  0.00     0.332 C 
ATOM      7  H   UNL     1      -4.811  -0.895   1.725  1.00  0.00     0.347 HD
ENDBRANCH   3   4
ENDBRANCH   2   3
ENDBRANCH   1   2
BRANCH   1   8
ATOM      8  N   UNL     1      -0.585  -1.099  -0.703  1.00  0.00    -0.369 N 
ATOM      9  H   UNL     1      -0.928  -1.267  -1.647  1.00  0.00     0.162 HD
BRANCH   8  10
ATOM     10  C   UNL     1       0.806  -0.886  -0.788  1.00  0.00     0.133 A 
ATOM     11  N   UNL     1       1.369   0.182  -0.194  1.00  0.00    -0.211 NA
ATOM     12  C   UNL     1       1.587  -1.801  -1.445  1.00  0.00     0.016 A 
ATOM     13  C   UNL     1       2.716   0.339  -0.294  1.00  0.00     0.161 A 
ATOM     14  C   UNL     1       2.942  -1.556  -1.498  1.00  0.00     0.050 A 
ATOM     15  C   UNL     1       1.235  -3.051  -2.176  1.00  0.00     0.042 C 
ATOM     16  N   UNL     1       3.542  -0.500  -0.948  1.00  0.00    -0.233 NA
ATOM     17  C   UNL     1       3.654  -2.615  -2.291  1.00  0.00     0.057 C 
ATOM     18  C   UNL     1       2.607  -3.736  -2.276  1.00  0.00     0.011 C 
BRANCH  13  19
ATOM     19  C   UNL     1       3.317   1.524   0.357  1.00  0.00     0.019 A 
ATOM     20  C   UNL     1       4.703   1.774   0.293  1.00  0.00     0.013 A 
ATOM     21  C   UNL     1       2.531   2.454   1.068  1.00  0.00     0.013 A 
ATOM     22  C   UNL     1       5.277   2.893   0.907  1.00  0.00     0.021 A 
ATOM     23  C   UNL     1       3.099   3.575   1.684  1.00  0.00     0.021 A 
ATOM     24  C   UNL     1       4.471   3.790   1.600  1.00  0.00     0.041 A 
ATOM     25  Cl  UNL     1       5.169   5.167   2.356  1.00  0.00    -0.084 Cl
ENDBRANCH  13  19
ENDBRANCH   8  10
ENDBRANCH   1   8
TORSDOF 6
