_i0
     RDKit          3D

 47 49  0  0  0  0  0  0  0  0999 V2000
   -5.4952    0.8710    2.5043 C   0  0  0  0  0  0  0  0  0  0  0  0
   -4.8994    0.0693    1.3744 N   0  0  0  0  0  4  0  0  0  0  0  0
   -5.8351    0.0286    0.1959 C   0  0  0  0  0  0  0  0  0  0  0  0
   -3.5040    0.5577    1.0302 C   0  0  0  0  0  0  0  0  0  0  0  0
   -2.7559   -0.4721    0.1927 C   0  0  0  0  0  0  0  0  0  0  0  0
   -1.3015   -0.0406   -0.0045 C   0  0  0  0  0  0  0  0  0  0  0  0
   -0.5852   -1.0985   -0.7030 N   0  0  0  0  0  0  0  0  0  0  0  0
    0.8063   -0.8861   -0.7878 C   0  0  0  0  0  0  0  0  0  0  0  0
    1.3690    0.1818   -0.1939 N   0  0  0  0  0  0  0  0  0  0  0  0
    1.5871   -1.8012   -1.4448 C   0  0  0  0  0  0  0  0  0  0  0  0
    2.7155    0.3390   -0.2940 C   0  0  0  0  0  0  0  0  0  0  0  0
    2.9423   -1.5565   -1.4977 C   0  0  0  0  0  0  0  0  0  0  0  0
    1.2349   -3.0506   -2.1759 C   0  0  0  0  0  0  0  0  0  0  0  0
    3.3168    1.5239    0.3568 C   0  0  0  0  0  0  0  0  0  0  0  0
    3.5415   -0.5002   -0.9475 N   0  0  0  0  0  0  0  0  0  0  0  0
    3.6541   -2.6149   -2.2908 C   0  0  0  0  0  0  0  0  0  0  0  0
    2.6069   -3.7361   -2.2758 C   0  0  0  0  0  0  0  0  0  0  0  0
    4.7031    1.7735    0.2935 C   0  0  0  0  0  0  0  0  0  0  0  0
    2.5313    2.4537    1.0678 C   0  0  0  0  0  0  0  0  0  0  0  0
    5.2773    2.8934    0.9072 C   0  0  0  0  0  0  0  0  0  0  0  0
    3.0995    3.5755    1.6836 C   0  0  0  0  0  0  0  0  0  0  0  0
    4.4714    3.7896    1.5999 C   0  0  0  0  0  0  0  0  0  0  0  0
    5.1693    5.1669    2.3560 Cl  0  0  0  0  0  0  0  0  0  0  0  0
   -4.8276    0.7913    3.3663 H   0  0  0  0  0  0  0  0  0  0  0  0
   -6.4690    0.4397    2.7510 H   0  0  0  0  0  0  0  0  0  0  0  0
   -5.5954    1.9096    2.1780 H   0  0  0  0  0  0  0  0  0  0  0  0
   -4.8113   -0.8951    1.7247 H   0  0  0  0  0  0  0  0  0  0  0  0
   -6.8109   -0.3166    0.5483 H   0  0  0  0  0  0  0  0  0  0  0  0
   -5.9067    1.0337   -0.2278 H   0  0  0  0  0  0  0  0  0  0  0  0
   -5.4438   -0.6819   -0.5348 H   0  0  0  0  0  0  0  0  0  0  0  0
   -2.9839    0.7166    1.9815 H   0  0  0  0  0  0  0  0  0  0  0  0
   -3.6056    1.5183    0.5132 H   0  0  0  0  0  0  0  0  0  0  0  0
   -2.7859   -1.4509    0.6882 H   0  0  0  0  0  0  0  0  0  0  0  0
   -3.2292   -0.5973   -0.7878 H   0  0  0  0  0  0  0  0  0  0  0  0
   -0.8578    0.1377    0.9836 H   0  0  0  0  0  0  0  0  0  0  0  0
   -1.2649    0.8941   -0.5778 H   0  0  0  0  0  0  0  0  0  0  0  0
   -0.9282   -1.2667   -1.6468 H   0  0  0  0  0  0  0  0  0  0  0  0
    0.8409   -2.8105   -3.1688 H   0  0  0  0  0  0  0  0  0  0  0  0
    0.5212   -3.6745   -1.6307 H   0  0  0  0  0  0  0  0  0  0  0  0
    3.8392   -2.2561   -3.3082 H   0  0  0  0  0  0  0  0  0  0  0  0
    4.5925   -2.9244   -1.8235 H   0  0  0  0  0  0  0  0  0  0  0  0
    2.6840   -4.3931   -3.1477 H   0  0  0  0  0  0  0  0  0  0  0  0
    2.7620   -4.3612   -1.3853 H   0  0  0  0  0  0  0  0  0  0  0  0
    5.3564    1.0855   -0.2432 H   0  0  0  0  0  0  0  0  0  0  0  0
    1.4564    2.3072    1.1481 H   0  0  0  0  0  0  0  0  0  0  0  0
    6.3502    3.0538    0.8378 H   0  0  0  0  0  0  0  0  0  0  0  0
    2.4674    4.2741    2.2247 H   0  0  0  0  0  0  0  0  0  0  0  0
  1  2  1  0
  2  3  1  0
  2  4  1  0
  4  5  1  0
  5  6  1  0
  6  7  1  0
  7  8  1  0
  8  9  2  0
 10  8  1  0
  9 11  1  0
 12 10  2  0
 10 13  1  0
 11 14  1  0
 11 15  2  0
 15 12  1  0
 16 12  1  0
 13 17  1  0
 14 18  2  0
 19 14  1  0
 17 16  1  0
 18 20  1  0
 21 19  2  0
 20 22  2  0
 22 21  1  0
 22 23  1  0
  1 24  1  0
  1 25  1  0
  1 26  1  0
  2 27  1  0
  3 28  1  0
  3 29  1  0
  3 30  1  0
  4 31  1  0
  4 32  1  0
  5 33  1  0
  5 34  1  0
  6 35  1  0
  6 36  1  0
  7 37  1  0
 13 38  1  0
 13 39  1  0
 16 40  1  0
 16 41  1  0
 17 42  1  0
 17 43  1  0
 18 44  1  0
 19 45  1  0
 20 46  1  0
 21 47  1  0
M  CHG  1   2   1
M  END
>  <ScrubInfo>  (1) 
{"isomerGroup": 0, "isomerId": 0, "confId": 0, "nr_conformers:": 1, "nr_isomers:": 3}

$$$$
_i1
     RDKit          3D

 47 49  0  0  0  0  0  0  0  0999 V2000
    1.7726    0.7563   -0.1015 N   0  0  0  0  0  0  0  0  0  0  0  0
    3.0177    0.1780    0.0310 C   0  0  0  0  0  0  0  0  0  0  0  0
    4.2202    1.0312    0.2824 C   0  0  0  0  0  0  0  0  0  0  0  0
    5.3385    0.4683    0.9136 C   0  0  0  0  0  0  0  0  0  0  0  0
    6.4722    1.2455    1.1664 C   0  0  0  0  0  0  0  0  0  0  0  0
    6.4918    2.5842    0.7821 C   0  0  0  0  0  0  0  0  0  0  0  0
    7.8846    3.5436    1.0918 Cl  0  0  0  0  0  0  0  0  0  0  0  0
    5.3899    3.1508    0.1421 C   0  0  0  0  0  0  0  0  0  0  0  0
    4.2530    2.3757   -0.1112 C   0  0  0  0  0  0  0  0  0  0  0  0
    3.1798   -1.1185   -0.0499 N   0  0  0  0  0  0  0  0  0  0  0  0
    2.0464   -1.8527   -0.2893 C   0  0  0  0  0  0  0  0  0  0  0  0
    0.7886   -1.4046   -0.4315 C   0  0  0  0  0  0  0  0  0  0  0  0
    0.6090    0.0626   -0.3244 C   0  0  0  0  0  0  0  0  0  0  0  0
   -0.4738    0.7598   -0.4074 N   0  0  0  0  0  0  0  0  0  0  0  0
   -1.7685    0.1605   -0.6573 C   0  0  0  0  0  0  0  0  0  0  0  0
   -2.7609    1.3043   -0.8769 C   0  0  0  0  0  0  0  0  0  0  0  0
   -4.1949    0.8384   -1.1002 C   0  0  0  0  0  0  0  0  0  0  0  0
   -4.8214    0.2217    0.1358 N   0  0  0  0  0  4  0  0  0  0  0  0
   -5.0107    1.1998    1.2670 C   0  0  0  0  0  0  0  0  0  0  0  0
   -6.1239   -0.4589   -0.2033 C   0  0  0  0  0  0  0  0  0  0  0  0
   -0.1719   -2.5044   -0.6809 C   0  0  0  0  0  0  0  0  0  0  0  0
    0.6525   -3.7511   -0.3421 C   0  0  0  0  0  0  0  0  0  0  0  0
    2.1216   -3.3380   -0.4370 C   0  0  0  0  0  0  0  0  0  0  0  0
    1.6561    1.7480    0.0367 H   0  0  0  0  0  0  0  0  0  0  0  0
    5.3330   -0.5779    1.2139 H   0  0  0  0  0  0  0  0  0  0  0  0
    7.3330    0.7994    1.6582 H   0  0  0  0  0  0  0  0  0  0  0  0
    5.4159    4.1922   -0.1702 H   0  0  0  0  0  0  0  0  0  0  0  0
    3.4245    2.8339   -0.6419 H   0  0  0  0  0  0  0  0  0  0  0  0
   -2.0738   -0.4352    0.2075 H   0  0  0  0  0  0  0  0  0  0  0  0
   -1.7542   -0.4690   -1.5528 H   0  0  0  0  0  0  0  0  0  0  0  0
   -2.4455    1.8643   -1.7676 H   0  0  0  0  0  0  0  0  0  0  0  0
   -2.7040    2.0205   -0.0498 H   0  0  0  0  0  0  0  0  0  0  0  0
   -4.2246    0.0788   -1.8895 H   0  0  0  0  0  0  0  0  0  0  0  0
   -4.8344    1.6772   -1.3975 H   0  0  0  0  0  0  0  0  0  0  0  0
   -4.1974   -0.5164    0.4835 H   0  0  0  0  0  0  0  0  0  0  0  0
   -5.5222    0.6814    2.0827 H   0  0  0  0  0  0  0  0  0  0  0  0
   -5.6074    2.0413    0.9056 H   0  0  0  0  0  0  0  0  0  0  0  0
   -4.0281    1.5265    1.6125 H   0  0  0  0  0  0  0  0  0  0  0  0
   -6.5014   -0.9413    0.7022 H   0  0  0  0  0  0  0  0  0  0  0  0
   -5.9229   -1.2147   -0.9671 H   0  0  0  0  0  0  0  0  0  0  0  0
   -6.8258    0.2949   -0.5699 H   0  0  0  0  0  0  0  0  0  0  0  0
   -0.4838   -2.5171   -1.7302 H   0  0  0  0  0  0  0  0  0  0  0  0
   -1.0560   -2.4604   -0.0405 H   0  0  0  0  0  0  0  0  0  0  0  0
    0.4265   -4.0749    0.6826 H   0  0  0  0  0  0  0  0  0  0  0  0
    0.4176   -4.5913   -1.0037 H   0  0  0  0  0  0  0  0  0  0  0  0
    2.7137   -3.8078    0.3542 H   0  0  0  0  0  0  0  0  0  0  0  0
    2.5485   -3.6047   -1.4097 H   0  0  0  0  0  0  0  0  0  0  0  0
  1  2  1  0
  2  3  1  0
  3  4  2  0
  4  5  1  0
  5  6  2  0
  6  7  1  0
  6  8  1  0
  8  9  2  0
  2 10  2  0
 10 11  1  0
 11 12  2  0
 12 13  1  0
 13 14  2  3
 14 15  1  0
 15 16  1  0
 16 17  1  0
 17 18  1  0
 18 19  1  0
 18 20  1  0
 12 21  1  0
 21 22  1  0
 22 23  1  0
 13  1  1  0
  9  3  1  0
 23 11  1  0
  1 24  1  0
  4 25  1  0
  5 26  1  0
  8 27  1  0
  9 28  1  0
 15 29  1  0
 15 30  1  0
 16 31  1  0
 16 32  1  0
 17 33  1  0
 17 34  1  0
 18 35  1  0
 19 36  1  0
 19 37  1  0
 19 38  1  0
 20 39  1  0
 20 40  1  0
 20 41  1  0
 21 42  1  0
 21 43  1  0
 22 44  1  0
 22 45  1  0
 23 46  1  0
 23 47  1  0
M  CHG  1  18   1
M  END
>  <ScrubInfo>  (2) 
{"isomerGroup": 0, "isomerId": 1, "confId": 0, "nr_conformers:": 1, "nr_isomers:": 3}

$$$$
_i2
     RDKit          3D

 47 49  0  0  0  0  0  0  0  0999 V2000
    2.8341   -0.8871    0.2586 N   0  0  0  0  0  0  0  0  0  0  0  0
    2.2140    0.2896   -0.1120 C   0  0  0  0  0  0  0  0  0  0  0  0
    3.0218    1.5462   -0.2160 C   0  0  0  0  0  0  0  0  0  0  0  0
    4.3965    1.5017   -0.4836 C   0  0  0  0  0  0  0  0  0  0  0  0
    5.1309    2.6889   -0.5739 C   0  0  0  0  0  0  0  0  0  0  0  0
    4.4933    3.9167   -0.4019 C   0  0  0  0  0  0  0  0  0  0  0  0
    5.3994    5.3735   -0.5131 Cl  0  0  0  0  0  0  0  0  0  0  0  0
    3.1247    3.9709   -0.1462 C   0  0  0  0  0  0  0  0  0  0  0  0
    2.3881    2.7866   -0.0569 C   0  0  0  0  0  0  0  0  0  0  0  0
    0.9330    0.3594   -0.3704 N   0  0  0  0  0  0  0  0  0  0  0  0
    0.1538   -0.7795   -0.3122 C   0  0  0  0  0  0  0  0  0  0  0  0
   -1.1028   -0.7500   -0.6152 N   0  0  0  0  0  0  0  0  0  0  0  0
   -1.6142    0.5311   -1.0988 C   0  0  0  0  0  0  0  0  0  0  0  0
   -3.0542    0.3460   -1.5626 C   0  0  0  0  0  0  0  0  0  0  0  0
   -3.9735   -0.4488   -0.6388 C   0  0  0  0  0  0  0  0  0  0  0  0
   -4.2522    0.1637    0.7164 N   0  0  0  0  0  4  0  0  0  0  0  0
   -4.6961    1.5935    0.6815 C   0  0  0  0  0  0  0  0  0  0  0  0
   -3.1796   -0.0869    1.7402 C   0  0  0  0  0  0  0  0  0  0  0  0
    0.7892   -2.0300    0.1308 C   0  0  0  0  0  0  0  0  0  0  0  0
    2.0944   -2.0199    0.3909 C   0  0  0  0  0  0  0  0  0  0  0  0
    2.5919   -3.3559    0.8134 C   0  0  0  0  0  0  0  0  0  0  0  0
    1.2802   -4.1178    1.0635 C   0  0  0  0  0  0  0  0  0  0  0  0
    0.1715   -3.3615    0.3147 C   0  0  0  0  0  0  0  0  0  0  0  0
    3.7995   -0.9110    0.5644 H   0  0  0  0  0  0  0  0  0  0  0  0
    4.9111    0.5610   -0.6553 H   0  0  0  0  0  0  0  0  0  0  0  0
    6.1967    2.6509   -0.7876 H   0  0  0  0  0  0  0  0  0  0  0  0
    2.6273    4.9290   -0.0186 H   0  0  0  0  0  0  0  0  0  0  0  0
    1.3204    2.8385    0.1410 H   0  0  0  0  0  0  0  0  0  0  0  0
   -1.5703    1.2965   -0.3172 H   0  0  0  0  0  0  0  0  0  0  0  0
   -1.0277    0.8936   -1.9527 H   0  0  0  0  0  0  0  0  0  0  0  0
   -3.4890    1.3262   -1.7901 H   0  0  0  0  0  0  0  0  0  0  0  0
   -3.0281   -0.1923   -2.5199 H   0  0  0  0  0  0  0  0  0  0  0  0
   -3.6118   -1.4689   -0.4688 H   0  0  0  0  0  0  0  0  0  0  0  0
   -4.9556   -0.5417   -1.1188 H   0  0  0  0  0  0  0  0  0  0  0  0
   -5.0606   -0.3673    1.0636 H   0  0  0  0  0  0  0  0  0  0  0  0
   -5.0668    1.8546    1.6764 H   0  0  0  0  0  0  0  0  0  0  0  0
   -5.5027    1.6831   -0.0508 H   0  0  0  0  0  0  0  0  0  0  0  0
   -3.8460    2.2252    0.4130 H   0  0  0  0  0  0  0  0  0  0  0  0
   -3.6146    0.1126    2.7239 H   0  0  0  0  0  0  0  0  0  0  0  0
   -2.8774   -1.1355    1.6824 H   0  0  0  0  0  0  0  0  0  0  0  0
   -2.3408    0.5867    1.5670 H   0  0  0  0  0  0  0  0  0  0  0  0
    3.1750   -3.8225    0.0127 H   0  0  0  0  0  0  0  0  0  0  0  0
    3.1998   -3.3108    1.7219 H   0  0  0  0  0  0  0  0  0  0  0  0
    1.0588   -4.1224    2.1391 H   0  0  0  0  0  0  0  0  0  0  0  0
    1.3481   -5.1636    0.7459 H   0  0  0  0  0  0  0  0  0  0  0  0
   -0.7473   -3.3242    0.9070 H   0  0  0  0  0  0  0  0  0  0  0  0
   -0.0422   -3.8277   -0.6526 H   0  0  0  0  0  0  0  0  0  0  0  0
  1  2  1  0
  2  3  1  0
  3  4  2  0
  4  5  1  0
  5  6  2  0
  6  7  1  0
  6  8  1  0
  8  9  2  0
  2 10  2  0
 10 11  1  0
 11 12  2  3
 12 13  1  0
 13 14  1  0
 14 15  1  0
 15 16  1  0
 16 17  1  0
 16 18  1  0
 11 19  1  0
 19 20  2  0
 20 21  1  0
 21 22  1  0
 22 23  1  0
 20  1  1  0
  9  3  1  0
 23 19  1  0
  1 24  1  0
  4 25  1  0
  5 26  1  0
  8 27  1  0
  9 28  1  0
 13 29  1  0
 13 30  1  0
 14 31  1  0
 14 32  1  0
 15 33  1  0
 15 34  1  0
 16 35  1  0
 17 36  1  0
 17 37  1  0
 17 38  1  0
 18 39  1  0
 18 40  1  0
 18 41  1  0
 21 42  1  0
 21 43  1  0
 22 44  1  0
 22 45  1  0
 23 46  1  0
 23 47  1  0
M  CHG  1  16   1
M  END
>  <ScrubInfo>  (3) 
{"isomerGroup": 0, "isomerId": 2, "confId": 0, "nr_conformers:": 1, "nr_isomers:": 3}

$$$$
