REMARK SMILES Cc1ccc(Nc2nc(NC[C@@H]3CCCO3)nc(N)c2[N+](=O)[O-])cc1
REMARK SMILES IDX 7 1 8 2 9 3 17 4 18 5 20 6 6 7 5 9 2 10 3 11 25 12 4 13
REMARK SMILES IDX 24 14 1 15 21 16 22 17 23 18 10 19 11 21 12 22 13 23 16 24
REMARK SMILES IDX 14 25 15 26 19 27
REMARK H PARENT 6 8 10 20 19 28 19 29
ROOT
ATOM      1  C   UNL     1      -0.829   0.602   0.526  1.00  0.00     0.217 A 
ATOM      2  N   UNL     1       0.340   0.191   0.000  1.00  0.00    -0.188 NA
ATOM      3  C   UNL     1       1.041   1.067  -0.733  1.00  0.00     0.227 A 
ATOM      4  N   UNL     1       0.657   2.329  -0.955  1.00  0.00    -0.189 NA
ATOM      5  C   UNL     1      -0.495   2.753  -0.413  1.00  0.00     0.210 A 
ATOM      6  C   UNL     1      -1.262   1.899   0.352  1.00  0.00     0.353 A 
ENDROOT
BRANCH   1   7
ATOM      7  N   UNL     1      -1.525  -0.384   1.250  1.00  0.00    -0.334 N 
ATOM      8  H   UNL     1      -0.931  -1.214   1.202  1.00  0.00     0.168 HD
BRANCH   7   9
ATOM      9  C   UNL     1      -2.862  -0.791   1.018  1.00  0.00     0.040 A 
ATOM     10  C   UNL     1      -5.477  -1.774   0.624  1.00  0.00    -0.051 A 
ATOM     11  C   UNL     1      -4.754  -1.228  -0.442  1.00  0.00     0.005 A 
ATOM     12  C   UNL     1      -4.866  -1.865   1.878  1.00  0.00     0.005 A 
ATOM     13  C   UNL     1      -3.455  -0.748  -0.249  1.00  0.00     0.026 A 
ATOM     14  C   UNL     1      -3.568  -1.385   2.069  1.00  0.00     0.026 A 
ATOM     15  C   UNL     1      -6.859  -2.314   0.409  1.00  0.00     0.044 C 
ENDBRANCH   7   9
ENDBRANCH   1   7
BRANCH   6  16
ATOM     16  N   UNL     1      -2.450   2.379   0.981  1.00  0.00     0.070 N 
ATOM     17  O   UNL     1      -3.369   2.751   0.235  1.00  0.00    -0.258 OA
ATOM     18  O   UNL     1      -2.448   2.470   2.216  1.00  0.00    -0.258 OA
ENDBRANCH   6  16
BRANCH   3  19
ATOM     19  N   UNL     1       2.231   0.682  -1.327  1.00  0.00    -0.351 N 
ATOM     20  H   UNL     1       2.718   1.541  -1.583  1.00  0.00     0.163 HD
BRANCH  19  21
ATOM     21  C   UNL     1       3.049  -0.221  -0.527  1.00  0.00     0.148 C 
BRANCH  21  22
ATOM     22  C   UNL     1       4.423  -0.384  -1.188  1.00  0.00     0.137 C 
ATOM     23  C   UNL     1       5.316  -1.386  -0.476  1.00  0.00     0.036 C 
ATOM     24  O   UNL     1       5.143   0.869  -1.165  1.00  0.00    -0.376 OA
ATOM     25  C   UNL     1       6.687  -0.910  -0.884  1.00  0.00     0.031 C 
ATOM     26  C   UNL     1       6.519   0.595  -0.863  1.00  0.00     0.160 C 
ENDBRANCH  21  22
ENDBRANCH  19  21
ENDBRANCH   3  19
BRANCH   5  27
ATOM     27  N   UNL     1      -0.811   4.098  -0.653  1.00  0.00    -0.378 N 
ATOM     28  H   UNL     1      -0.805   4.643   0.206  1.00  0.00     0.158 HD
ATOM     29  H   UNL     1      -1.740   4.184  -1.066  1.00  0.00     0.158 HD
ENDBRANCH   5  27
TORSDOF 7
