_i0
     RDKit          3D

 45 47  0  0  0  0  0  0  0  0999 V2000
   -6.8593   -2.3141    0.4088 C   0  0  0  0  0  0  0  0  0  0  0  0
   -5.4769   -1.7735    0.6239 C   0  0  0  0  0  0  0  0  0  0  0  0
   -4.7544   -1.2279   -0.4421 C   0  0  0  0  0  0  0  0  0  0  0  0
   -3.4553   -0.7481   -0.2486 C   0  0  0  0  0  0  0  0  0  0  0  0
   -2.8620   -0.7914    1.0179 C   0  0  0  0  0  0  0  0  0  0  0  0
   -1.5251   -0.3836    1.2505 N   0  0  0  0  0  0  0  0  0  0  0  0
   -0.8294    0.6016    0.5260 C   0  0  0  0  0  0  0  0  0  0  0  0
    0.3398    0.1909    0.0002 N   0  0  0  0  0  0  0  0  0  0  0  0
    1.0409    1.0670   -0.7332 C   0  0  0  0  0  0  0  0  0  0  0  0
    2.2306    0.6825   -1.3274 N   0  0  0  0  0  0  0  0  0  0  0  0
    3.0485   -0.2208   -0.5268 C   0  0  0  0  0  0  0  0  0  0  0  0
    4.4226   -0.3843   -1.1883 C   0  0  0  0  0  0  0  0  0  0  0  0
    5.3158   -1.3857   -0.4758 C   0  0  0  0  0  0  0  0  0  0  0  0
    6.6873   -0.9096   -0.8841 C   0  0  0  0  0  0  0  0  0  0  0  0
    6.5191    0.5950   -0.8631 C   0  0  0  0  0  0  0  0  0  0  0  0
    5.1427    0.8689   -1.1649 O   0  0  0  0  0  0  0  0  0  0  0  0
    0.6571    2.3287   -0.9545 N   0  0  0  0  0  0  0  0  0  0  0  0
   -0.4946    2.7533   -0.4127 C   0  0  0  0  0  0  0  0  0  0  0  0
   -0.8111    4.0980   -0.6527 N   0  0  0  0  0  0  0  0  0  0  0  0
   -1.2622    1.8993    0.3524 C   0  0  0  0  0  0  0  0  0  0  0  0
   -2.4503    2.3791    0.9812 N   0  0  0  0  0  4  0  0  0  0  0  0
   -3.3686    2.7513    0.2350 O   0  0  0  0  0  0  0  0  0  0  0  0
   -2.4479    2.4697    2.2163 O   0  0  0  0  0  1  0  0  0  0  0  0
   -3.5681   -1.3851    2.0692 C   0  0  0  0  0  0  0  0  0  0  0  0
   -4.8664   -1.8650    1.8784 C   0  0  0  0  0  0  0  0  0  0  0  0
   -7.4596   -2.2252    1.3203 H   0  0  0  0  0  0  0  0  0  0  0  0
   -7.3787   -1.7560   -0.3774 H   0  0  0  0  0  0  0  0  0  0  0  0
   -6.8082   -3.3683    0.1199 H   0  0  0  0  0  0  0  0  0  0  0  0
   -5.1964   -1.1766   -1.4349 H   0  0  0  0  0  0  0  0  0  0  0  0
   -2.9175   -0.3546   -1.1073 H   0  0  0  0  0  0  0  0  0  0  0  0
   -0.9310   -1.2145    1.2025 H   0  0  0  0  0  0  0  0  0  0  0  0
    2.7176    1.5407   -1.5829 H   0  0  0  0  0  0  0  0  0  0  0  0
    3.1804    0.1933    0.4814 H   0  0  0  0  0  0  0  0  0  0  0  0
    2.5641   -1.2013   -0.4483 H   0  0  0  0  0  0  0  0  0  0  0  0
    4.3064   -0.6646   -2.2431 H   0  0  0  0  0  0  0  0  0  0  0  0
    5.1108   -2.4197   -0.7663 H   0  0  0  0  0  0  0  0  0  0  0  0
    5.2070   -1.3049    0.6125 H   0  0  0  0  0  0  0  0  0  0  0  0
    6.9097   -1.2468   -1.9035 H   0  0  0  0  0  0  0  0  0  0  0  0
    7.4883   -1.2583   -0.2271 H   0  0  0  0  0  0  0  0  0  0  0  0
    7.1630    1.0991   -1.5892 H   0  0  0  0  0  0  0  0  0  0  0  0
    6.7280    1.0029    0.1314 H   0  0  0  0  0  0  0  0  0  0  0  0
   -0.8054    4.6428    0.2064 H   0  0  0  0  0  0  0  0  0  0  0  0
   -1.7403    4.1843   -1.0658 H   0  0  0  0  0  0  0  0  0  0  0  0
   -3.1137   -1.4600    3.0546 H   0  0  0  0  0  0  0  0  0  0  0  0
   -5.3971   -2.3087    2.7177 H   0  0  0  0  0  0  0  0  0  0  0  0
  1  2  1  0
  2  3  2  0
  3  4  1  0
  4  5  2  0
  5  6  1  0
  6  7  1  0
  7  8  2  0
  8  9  1  0
  9 10  1  0
 10 11  1  0
 11 12  1  0
 12 13  1  0
 13 14  1  0
 14 15  1  0
 15 16  1  0
  9 17  2  0
 17 18  1  0
 18 19  1  0
 18 20  2  0
 20 21  1  0
 21 22  2  0
 21 23  1  0
  5 24  1  0
 24 25  2  0
 25  2  1  0
 20  7  1  0
 16 12  1  0
  1 26  1  0
  1 27  1  0
  1 28  1  0
  3 29  1  0
  4 30  1  0
  6 31  1  0
 10 32  1  0
 11 33  1  0
 11 34  1  0
 12 35  1  0
 13 36  1  0
 13 37  1  0
 14 38  1  0
 14 39  1  0
 15 40  1  0
 15 41  1  0
 19 42  1  0
 19 43  1  0
 24 44  1  0
 25 45  1  0
M  CHG  2  21   1  23  -1
M  END
>  <ScrubInfo>  (1) 
{"isomerGroup": 0, "isomerId": 0, "confId": 0, "nr_conformers:": 1, "nr_isomers:": 9}

$$$$
_i1
     RDKit          3D

 45 47  0  0  0  0  0  0  0  0999 V2000
   -0.3558   -1.5095    0.2927 N   0  0  0  0  0  0  0  0  0  0  0  0
   -1.4777   -1.0507   -0.3229 C   0  0  0  0  0  0  0  0  0  0  0  0
   -2.6282   -1.5238    0.2425 N   0  0  0  0  0  0  0  0  0  0  0  0
   -3.9384   -1.2461   -0.3447 C   0  0  0  0  0  0  0  0  0  0  0  0
   -4.3835    0.2096   -0.1689 C   0  0  0  0  0  0  0  0  0  0  0  0
   -4.3823    0.6918    1.2742 C   0  0  0  0  0  0  0  0  0  0  0  0
   -5.3842    1.8173    1.2164 C   0  0  0  0  0  0  0  0  0  0  0  0
   -6.4228    1.2671    0.2627 C   0  0  0  0  0  0  0  0  0  0  0  0
   -5.7458    0.3646   -0.6252 O   0  0  0  0  0  0  0  0  0  0  0  0
   -1.4406   -0.2179   -1.3213 N   0  0  0  0  0  0  0  0  0  0  0  0
   -0.2007    0.1603   -1.8285 C   0  0  0  0  0  0  0  0  0  0  0  0
   -0.2698    0.9329   -2.9814 N   0  0  0  0  0  0  0  0  0  0  0  0
    0.9626   -0.2117   -1.2314 C   0  0  0  0  0  0  0  0  0  0  0  0
    2.1859    0.1124   -1.8876 N   0  0  0  0  0  4  0  0  0  0  0  0
    2.8246   -0.8200   -2.3944 O   0  0  0  0  0  0  0  0  0  0  0  0
    2.4973    1.3133   -1.9430 O   0  0  0  0  0  1  0  0  0  0  0  0
    0.9080   -1.0538   -0.0041 C   0  0  0  0  0  0  0  0  0  0  0  0
    1.8217   -1.3899    0.8633 N   0  0  0  0  0  0  0  0  0  0  0  0
    3.1341   -0.9172    0.7951 C   0  0  0  0  0  0  0  0  0  0  0  0
    3.4547    0.3620    1.2559 C   0  0  0  0  0  0  0  0  0  0  0  0
    4.7741    0.8197    1.2139 C   0  0  0  0  0  0  0  0  0  0  0  0
    5.7959   -0.0096    0.7378 C   0  0  0  0  0  0  0  0  0  0  0  0
    7.2059    0.4942    0.6506 C   0  0  0  0  0  0  0  0  0  0  0  0
    5.4745   -1.2968    0.2925 C   0  0  0  0  0  0  0  0  0  0  0  0
    4.1540   -1.7510    0.3366 C   0  0  0  0  0  0  0  0  0  0  0  0
   -0.4400   -1.9566    1.1935 H   0  0  0  0  0  0  0  0  0  0  0  0
   -2.5607   -2.4831    0.5651 H   0  0  0  0  0  0  0  0  0  0  0  0
   -3.9504   -1.5210   -1.4067 H   0  0  0  0  0  0  0  0  0  0  0  0
   -4.6768   -1.9030    0.1321 H   0  0  0  0  0  0  0  0  0  0  0  0
   -3.7697    0.8785   -0.7831 H   0  0  0  0  0  0  0  0  0  0  0  0
   -4.7472   -0.0911    1.9500 H   0  0  0  0  0  0  0  0  0  0  0  0
   -3.3945    1.0120    1.6171 H   0  0  0  0  0  0  0  0  0  0  0  0
   -4.9162    2.7103    0.7853 H   0  0  0  0  0  0  0  0  0  0  0  0
   -5.8002    2.0873    2.1906 H   0  0  0  0  0  0  0  0  0  0  0  0
   -6.9172    2.0519   -0.3167 H   0  0  0  0  0  0  0  0  0  0  0  0
   -7.1876    0.6942    0.7975 H   0  0  0  0  0  0  0  0  0  0  0  0
   -1.2049    1.3290   -3.0593 H   0  0  0  0  0  0  0  0  0  0  0  0
    0.4549    1.6491   -3.0414 H   0  0  0  0  0  0  0  0  0  0  0  0
    2.6765    1.0101    1.6482 H   0  0  0  0  0  0  0  0  0  0  0  0
    4.9987    1.8272    1.5562 H   0  0  0  0  0  0  0  0  0  0  0  0
    7.9219   -0.3257    0.7706 H   0  0  0  0  0  0  0  0  0  0  0  0
    7.3732    0.9712   -0.3200 H   0  0  0  0  0  0  0  0  0  0  0  0
    7.4104    1.2220    1.4429 H   0  0  0  0  0  0  0  0  0  0  0  0
    6.2483   -1.9548   -0.0958 H   0  0  0  0  0  0  0  0  0  0  0  0
    3.9181   -2.7544   -0.0067 H   0  0  0  0  0  0  0  0  0  0  0  0
  1  2  1  0
  2  3  1  0
  3  4  1  0
  4  5  1  0
  5  6  1  0
  6  7  1  0
  7  8  1  0
  8  9  1  0
  2 10  2  0
 10 11  1  0
 11 12  1  0
 11 13  2  0
 13 14  1  0
 14 15  2  0
 14 16  1  0
 13 17  1  0
 17 18  2  3
 18 19  1  0
 19 20  2  0
 20 21  1  0
 21 22  2  0
 22 23  1  0
 22 24  1  0
 24 25  2  0
 17  1  1  0
 25 19  1  0
  9  5  1  0
  1 26  1  0
  3 27  1  0
  4 28  1  0
  4 29  1  0
  5 30  1  0
  6 31  1  0
  6 32  1  0
  7 33  1  0
  7 34  1  0
  8 35  1  0
  8 36  1  0
 12 37  1  0
 12 38  1  0
 20 39  1  0
 21 40  1  0
 23 41  1  0
 23 42  1  0
 23 43  1  0
 24 44  1  0
 25 45  1  0
M  CHG  2  14   1  16  -1
M  END
>  <ScrubInfo>  (2) 
{"isomerGroup": 0, "isomerId": 1, "confId": 0, "nr_conformers:": 1, "nr_isomers:": 9}

$$$$
_i2
     RDKit          3D

 45 47  0  0  0  0  0  0  0  0999 V2000
    0.1130   -0.7082    0.6264 N   0  0  0  0  0  0  0  0  0  0  0  0
    0.8095   -1.7409    0.0270 C   0  0  0  0  0  0  0  0  0  0  0  0
    2.1787   -1.8601    0.2341 N   0  0  0  0  0  0  0  0  0  0  0  0
    3.1501   -0.8506    0.3845 C   0  0  0  0  0  0  0  0  0  0  0  0
    4.3938   -1.2038    0.9271 C   0  0  0  0  0  0  0  0  0  0  0  0
    5.3868   -0.2446    1.1507 C   0  0  0  0  0  0  0  0  0  0  0  0
    5.1511    1.0992    0.8518 C   0  0  0  0  0  0  0  0  0  0  0  0
    6.2240    2.1264    1.0585 C   0  0  0  0  0  0  0  0  0  0  0  0
    3.9175    1.4603    0.3035 C   0  0  0  0  0  0  0  0  0  0  0  0
    2.9262    0.4969    0.0826 C   0  0  0  0  0  0  0  0  0  0  0  0
    0.0548   -2.6031   -0.6965 C   0  0  0  0  0  0  0  0  0  0  0  0
    0.6566   -3.7123   -1.3949 N   0  0  0  0  0  4  0  0  0  0  0  0
    0.1013   -4.1010   -2.4339 O   0  0  0  0  0  0  0  0  0  0  0  0
    1.6952   -4.2100   -0.9315 O   0  0  0  0  0  1  0  0  0  0  0  0
   -1.4216   -2.3486   -0.8076 C   0  0  0  0  0  0  0  0  0  0  0  0
   -2.2808   -3.1491   -1.5242 N   0  0  0  0  0  0  0  0  0  0  0  0
   -2.0083   -1.3374   -0.2165 N   0  0  0  0  0  0  0  0  0  0  0  0
   -1.2313   -0.5107    0.5523 C   0  0  0  0  0  0  0  0  0  0  0  0
   -1.7519    0.4663    1.2112 N   0  0  0  0  0  0  0  0  0  0  0  0
   -3.2001    0.6813    1.1634 C   0  0  0  0  0  0  0  0  0  0  0  0
   -3.5318    1.9812    0.4148 C   0  0  0  0  0  0  0  0  0  0  0  0
   -3.2415    1.9326   -1.0796 C   0  0  0  0  0  0  0  0  0  0  0  0
   -4.5334    1.4039   -1.6487 C   0  0  0  0  0  0  0  0  0  0  0  0
   -5.5589    2.0648   -0.7554 C   0  0  0  0  0  0  0  0  0  0  0  0
   -4.9509    2.2291    0.5327 O   0  0  0  0  0  0  0  0  0  0  0  0
    0.6173   -0.1417    1.2956 H   0  0  0  0  0  0  0  0  0  0  0  0
    2.5848   -2.7612   -0.0377 H   0  0  0  0  0  0  0  0  0  0  0  0
    4.6006   -2.2386    1.1914 H   0  0  0  0  0  0  0  0  0  0  0  0
    6.3425   -0.5565    1.5662 H   0  0  0  0  0  0  0  0  0  0  0  0
    6.8393    2.2114    0.1576 H   0  0  0  0  0  0  0  0  0  0  0  0
    6.8670    1.8553    1.9024 H   0  0  0  0  0  0  0  0  0  0  0  0
    5.7888    3.1058    1.2840 H   0  0  0  0  0  0  0  0  0  0  0  0
    3.7169    2.4968    0.0401 H   0  0  0  0  0  0  0  0  0  0  0  0
    1.9925    0.8243   -0.3658 H   0  0  0  0  0  0  0  0  0  0  0  0
   -1.8914   -3.6612   -2.3162 H   0  0  0  0  0  0  0  0  0  0  0  0
   -3.1767   -2.7119   -1.7170 H   0  0  0  0  0  0  0  0  0  0  0  0
   -3.7762   -0.1584    0.7582 H   0  0  0  0  0  0  0  0  0  0  0  0
   -3.5568    0.7768    2.1970 H   0  0  0  0  0  0  0  0  0  0  0  0
   -2.9979    2.8162    0.8824 H   0  0  0  0  0  0  0  0  0  0  0  0
   -2.3674    1.3395   -1.3570 H   0  0  0  0  0  0  0  0  0  0  0  0
   -3.0793    2.9526   -1.4504 H   0  0  0  0  0  0  0  0  0  0  0  0
   -4.5774    0.3148   -1.5336 H   0  0  0  0  0  0  0  0  0  0  0  0
   -4.6761    1.6402   -2.7065 H   0  0  0  0  0  0  0  0  0  0  0  0
   -5.8247    3.0600   -1.1274 H   0  0  0  0  0  0  0  0  0  0  0  0
   -6.4741    1.4741   -0.6582 H   0  0  0  0  0  0  0  0  0  0  0  0
  1  2  1  0
  2  3  1  0
  3  4  1  0
  4  5  2  0
  5  6  1  0
  6  7  2  0
  7  8  1  0
  7  9  1  0
  9 10  2  0
  2 11  2  0
 11 12  1  0
 12 13  2  0
 12 14  1  0
 11 15  1  0
 15 16  1  0
 15 17  2  0
 17 18  1  0
 18 19  2  3
 19 20  1  0
 20 21  1  0
 21 22  1  0
 22 23  1  0
 23 24  1  0
 24 25  1  0
 18  1  1  0
 25 21  1  0
 10  4  1  0
  1 26  1  0
  3 27  1  0
  5 28  1  0
  6 29  1  0
  8 30  1  0
  8 31  1  0
  8 32  1  0
  9 33  1  0
 10 34  1  0
 16 35  1  0
 16 36  1  0
 20 37  1  0
 20 38  1  0
 21 39  1  0
 22 40  1  0
 22 41  1  0
 23 42  1  0
 23 43  1  0
 24 44  1  0
 24 45  1  0
M  CHG  2  12   1  14  -1
M  END
>  <ScrubInfo>  (3) 
{"isomerGroup": 0, "isomerId": 2, "confId": 0, "nr_conformers:": 1, "nr_isomers:": 9}

$$$$
_i3
     RDKit          3D

 45 47  0  0  0  0  0  0  0  0999 V2000
    1.2164   -1.4944   -0.3176 N   0  0  0  0  0  0  0  0  0  0  0  0
    0.1143   -2.3025   -0.4970 C   0  0  0  0  0  0  0  0  0  0  0  0
    0.2478   -3.3598   -1.3833 N   0  0  0  0  0  0  0  0  0  0  0  0
   -0.9815   -1.9971    0.2339 C   0  0  0  0  0  0  0  0  0  0  0  0
   -2.1395   -2.8412    0.1778 N   0  0  0  0  0  4  0  0  0  0  0  0
   -2.6311   -3.2157    1.2502 O   0  0  0  0  0  0  0  0  0  0  0  0
   -2.5471   -3.1778   -0.9467 O   0  0  0  0  0  1  0  0  0  0  0  0
   -0.9371   -0.7977    1.1249 C   0  0  0  0  0  0  0  0  0  0  0  0
   -2.0296   -0.3137    1.8256 N   0  0  0  0  0  0  0  0  0  0  0  0
   -3.2280    0.0688    1.1705 C   0  0  0  0  0  0  0  0  0  0  0  0
   -4.4290    0.0020    1.8835 C   0  0  0  0  0  0  0  0  0  0  0  0
   -5.6278    0.4260    1.3044 C   0  0  0  0  0  0  0  0  0  0  0  0
   -5.6423    0.9427    0.0051 C   0  0  0  0  0  0  0  0  0  0  0  0
   -6.9232    1.4281   -0.6059 C   0  0  0  0  0  0  0  0  0  0  0  0
   -4.4344    1.0614   -0.6903 C   0  0  0  0  0  0  0  0  0  0  0  0
   -3.2362    0.6348   -0.1099 C   0  0  0  0  0  0  0  0  0  0  0  0
    0.1668   -0.1092    1.3001 N   0  0  0  0  0  0  0  0  0  0  0  0
    1.2898   -0.4810    0.6029 C   0  0  0  0  0  0  0  0  0  0  0  0
    2.3271    0.2026    0.9183 N   0  0  0  0  0  0  0  0  0  0  0  0
    3.6061   -0.0514    0.2543 C   0  0  0  0  0  0  0  0  0  0  0  0
    4.5224    1.1733    0.4410 C   0  0  0  0  0  0  0  0  0  0  0  0
    5.9940    0.8409    0.2208 C   0  0  0  0  0  0  0  0  0  0  0  0
    6.1896    1.1316   -1.2456 C   0  0  0  0  0  0  0  0  0  0  0  0
    5.3010    2.3380   -1.4386 C   0  0  0  0  0  0  0  0  0  0  0  0
    4.1867    2.1665   -0.5560 O   0  0  0  0  0  0  0  0  0  0  0  0
    2.0799   -1.8544   -0.6917 H   0  0  0  0  0  0  0  0  0  0  0  0
   -0.6538   -3.7494   -1.6827 H   0  0  0  0  0  0  0  0  0  0  0  0
    0.8019   -3.1138   -2.2007 H   0  0  0  0  0  0  0  0  0  0  0  0
   -1.7258    0.4748    2.3991 H   0  0  0  0  0  0  0  0  0  0  0  0
   -4.4402   -0.4038    2.8928 H   0  0  0  0  0  0  0  0  0  0  0  0
   -6.5498    0.3482    1.8763 H   0  0  0  0  0  0  0  0  0  0  0  0
   -7.7763    0.8499   -0.2355 H   0  0  0  0  0  0  0  0  0  0  0  0
   -6.9035    1.3155   -1.6950 H   0  0  0  0  0  0  0  0  0  0  0  0
   -7.0780    2.4836   -0.3618 H   0  0  0  0  0  0  0  0  0  0  0  0
   -4.4166    1.4966   -1.6872 H   0  0  0  0  0  0  0  0  0  0  0  0
   -2.3130    0.7735   -0.6670 H   0  0  0  0  0  0  0  0  0  0  0  0
    3.4684   -0.2371   -0.8173 H   0  0  0  0  0  0  0  0  0  0  0  0
    4.0612   -0.9337    0.7178 H   0  0  0  0  0  0  0  0  0  0  0  0
    4.3730    1.6129    1.4337 H   0  0  0  0  0  0  0  0  0  0  0  0
    6.6138    1.5288    0.8095 H   0  0  0  0  0  0  0  0  0  0  0  0
    6.2701   -0.1784    0.5047 H   0  0  0  0  0  0  0  0  0  0  0  0
    5.8209    0.2912   -1.8450 H   0  0  0  0  0  0  0  0  0  0  0  0
    7.2305    1.3199   -1.5208 H   0  0  0  0  0  0  0  0  0  0  0  0
    4.9453    2.4393   -2.4676 H   0  0  0  0  0  0  0  0  0  0  0  0
    5.8169    3.2613   -1.1539 H   0  0  0  0  0  0  0  0  0  0  0  0
  1  2  1  0
  2  3  1  0
  2  4  2  0
  4  5  1  0
  5  6  2  0
  5  7  1  0
  4  8  1  0
  8  9  1  0
  9 10  1  0
 10 11  2  0
 11 12  1  0
 12 13  2  0
 13 14  1  0
 13 15  1  0
 15 16  2  0
  8 17  2  0
 17 18  1  0
 18 19  2  3
 19 20  1  0
 20 21  1  0
 21 22  1  0
 22 23  1  0
 23 24  1  0
 24 25  1  0
 18  1  1  0
 25 21  1  0
 16 10  1  0
  1 26  1  0
  3 27  1  0
  3 28  1  0
  9 29  1  0
 11 30  1  0
 12 31  1  0
 14 32  1  0
 14 33  1  0
 14 34  1  0
 15 35  1  0
 16 36  1  0
 20 37  1  0
 20 38  1  0
 21 39  1  0
 22 40  1  0
 22 41  1  0
 23 42  1  0
 23 43  1  0
 24 44  1  0
 24 45  1  0
M  CHG  2   5   1   7  -1
M  END
>  <ScrubInfo>  (4) 
{"isomerGroup": 0, "isomerId": 3, "confId": 0, "nr_conformers:": 1, "nr_isomers:": 9}

$$$$
_i4
     RDKit          3D

 45 47  0  0  0  0  0  0  0  0999 V2000
   -1.0530   -1.5562   -1.9488 N   0  0  0  0  0  0  0  0  0  0  0  0
   -1.2035   -1.2784   -0.6249 C   0  0  0  0  0  0  0  0  0  0  0  0
   -2.4666   -0.9701   -0.2194 N   0  0  0  0  0  0  0  0  0  0  0  0
   -3.2595    0.0743   -0.8701 C   0  0  0  0  0  0  0  0  0  0  0  0
   -4.5331    0.3309   -0.0570 C   0  0  0  0  0  0  0  0  0  0  0  0
   -5.4228    1.4088   -0.6505 C   0  0  0  0  0  0  0  0  0  0  0  0
   -6.1706    1.8865    0.5694 C   0  0  0  0  0  0  0  0  0  0  0  0
   -5.0994    1.8346    1.6386 C   0  0  0  0  0  0  0  0  0  0  0  0
   -4.1870    0.7889    1.2680 O   0  0  0  0  0  0  0  0  0  0  0  0
   -0.2260   -1.3211    0.2346 N   0  0  0  0  0  0  0  0  0  0  0  0
    1.0582   -1.6374   -0.2285 C   0  0  0  0  0  0  0  0  0  0  0  0
    2.0525   -1.6441    0.7535 N   0  0  0  0  0  0  0  0  0  0  0  0
    3.1485   -0.7405    0.7786 C   0  0  0  0  0  0  0  0  0  0  0  0
    3.1371    0.4998    0.1314 C   0  0  0  0  0  0  0  0  0  0  0  0
    4.2232    1.3739    0.2467 C   0  0  0  0  0  0  0  0  0  0  0  0
    5.3269    1.0377    1.0373 C   0  0  0  0  0  0  0  0  0  0  0  0
    6.5082    1.9570    1.1259 C   0  0  0  0  0  0  0  0  0  0  0  0
    5.3354   -0.1947    1.6970 C   0  0  0  0  0  0  0  0  0  0  0  0
    4.2494   -1.0664    1.5797 C   0  0  0  0  0  0  0  0  0  0  0  0
    1.2795   -1.9525   -1.5299 C   0  0  0  0  0  0  0  0  0  0  0  0
    2.5730   -2.3555   -1.9739 N   0  0  0  0  0  4  0  0  0  0  0  0
    2.9380   -3.5091   -1.6999 O   0  0  0  0  0  0  0  0  0  0  0  0
    3.2311   -1.5260   -2.6199 O   0  0  0  0  0  1  0  0  0  0  0  0
    0.1458   -1.9490   -2.4807 C   0  0  0  0  0  0  0  0  0  0  0  0
    0.2568   -2.3036   -3.7216 N   0  0  0  0  0  0  0  0  0  0  0  0
   -1.8936   -1.7078   -2.4808 H   0  0  0  0  0  0  0  0  0  0  0  0
   -2.4599   -0.7935    0.7901 H   0  0  0  0  0  0  0  0  0  0  0  0
   -3.5227   -0.2285   -1.8889 H   0  0  0  0  0  0  0  0  0  0  0  0
   -2.6584    0.9901   -0.9194 H   0  0  0  0  0  0  0  0  0  0  0  0
   -5.0971   -0.6024    0.0675 H   0  0  0  0  0  0  0  0  0  0  0  0
   -4.8245    2.2314   -1.0607 H   0  0  0  0  0  0  0  0  0  0  0  0
   -6.0772    1.0320   -1.4413 H   0  0  0  0  0  0  0  0  0  0  0  0
   -6.9749    1.1818    0.8117 H   0  0  0  0  0  0  0  0  0  0  0  0
   -6.6108    2.8805    0.4549 H   0  0  0  0  0  0  0  0  0  0  0  0
   -4.5325    2.7707    1.6774 H   0  0  0  0  0  0  0  0  0  0  0  0
   -5.5078    1.6319    2.6326 H   0  0  0  0  0  0  0  0  0  0  0  0
    1.5702   -1.5482    1.6501 H   0  0  0  0  0  0  0  0  0  0  0  0
    2.2886    0.8093   -0.4714 H   0  0  0  0  0  0  0  0  0  0  0  0
    4.1989    2.3213   -0.2869 H   0  0  0  0  0  0  0  0  0  0  0  0
    7.0130    1.8526    2.0921 H   0  0  0  0  0  0  0  0  0  0  0  0
    7.2210    1.7284    0.3277 H   0  0  0  0  0  0  0  0  0  0  0  0
    6.1970    3.0029    1.0341 H   0  0  0  0  0  0  0  0  0  0  0  0
    6.1883   -0.4888    2.3042 H   0  0  0  0  0  0  0  0  0  0  0  0
    4.2759   -2.0207    2.1007 H   0  0  0  0  0  0  0  0  0  0  0  0
   -0.6358   -2.2310   -4.2132 H   0  0  0  0  0  0  0  0  0  0  0  0
  1  2  1  0
  2  3  1  0
  3  4  1  0
  4  5  1  0
  5  6  1  0
  6  7  1  0
  7  8  1  0
  8  9  1  0
  2 10  2  0
 10 11  1  0
 11 12  1  0
 12 13  1  0
 13 14  2  0
 14 15  1  0
 15 16  2  0
 16 17  1  0
 16 18  1  0
 18 19  2  0
 11 20  2  0
 20 21  1  0
 21 22  2  0
 21 23  1  0
 20 24  1  0
 24 25  2  3
 24  1  1  0
  9  5  1  0
 19 13  1  0
  1 26  1  0
  3 27  1  0
  4 28  1  0
  4 29  1  0
  5 30  1  0
  6 31  1  0
  6 32  1  0
  7 33  1  0
  7 34  1  0
  8 35  1  0
  8 36  1  0
 12 37  1  0
 14 38  1  0
 15 39  1  0
 17 40  1  0
 17 41  1  0
 17 42  1  0
 18 43  1  0
 19 44  1  0
 25 45  1  0
M  CHG  2  21   1  23  -1
M  END
>  <ScrubInfo>  (5) 
{"isomerGroup": 0, "isomerId": 4, "confId": 0, "nr_conformers:": 1, "nr_isomers:": 9}

$$$$
_i5
     RDKit          3D

 45 47  0  0  0  0  0  0  0  0999 V2000
   -0.2703   -0.1307   -0.2264 N   0  0  0  0  0  0  0  0  0  0  0  0
   -1.1849    0.3816   -1.0944 C   0  0  0  0  0  0  0  0  0  0  0  0
   -2.0871   -0.5196   -1.5735 N   0  0  0  0  0  0  0  0  0  0  0  0
   -2.9514   -1.2927   -0.6760 C   0  0  0  0  0  0  0  0  0  0  0  0
   -4.1484   -0.4474   -0.2259 C   0  0  0  0  0  0  0  0  0  0  0  0
   -5.0587   -1.1644    0.7551 C   0  0  0  0  0  0  0  0  0  0  0  0
   -6.3595   -0.4296    0.5455 C   0  0  0  0  0  0  0  0  0  0  0  0
   -6.3531   -0.1873   -0.9499 C   0  0  0  0  0  0  0  0  0  0  0  0
   -4.9789   -0.1308   -1.3630 O   0  0  0  0  0  0  0  0  0  0  0  0
   -1.2164    1.6167   -1.4773 N   0  0  0  0  0  0  0  0  0  0  0  0
   -0.2597    2.4848   -0.9956 C   0  0  0  0  0  0  0  0  0  0  0  0
   -0.3620    3.6911   -1.4380 N   0  0  0  0  0  0  0  0  0  0  0  0
    0.7593    1.9412   -0.0640 C   0  0  0  0  0  0  0  0  0  0  0  0
    1.7002    2.8447    0.5224 N   0  0  0  0  0  4  0  0  0  0  0  0
    2.3271    3.5796   -0.2543 O   0  0  0  0  0  0  0  0  0  0  0  0
    1.7793    2.8877    1.7585 O   0  0  0  0  0  1  0  0  0  0  0  0
    0.7727    0.6310    0.2695 C   0  0  0  0  0  0  0  0  0  0  0  0
    1.7136    0.0101    1.0762 N   0  0  0  0  0  0  0  0  0  0  0  0
    3.0405   -0.3046    0.6886 C   0  0  0  0  0  0  0  0  0  0  0  0
    3.5982    0.0615   -0.5417 C   0  0  0  0  0  0  0  0  0  0  0  0
    4.9329   -0.2355   -0.8417 C   0  0  0  0  0  0  0  0  0  0  0  0
    5.7416   -0.8986    0.0853 C   0  0  0  0  0  0  0  0  0  0  0  0
    7.1824   -1.1780   -0.2233 C   0  0  0  0  0  0  0  0  0  0  0  0
    5.2037   -1.2326    1.3302 C   0  0  0  0  0  0  0  0  0  0  0  0
    3.8700   -0.9355    1.6270 C   0  0  0  0  0  0  0  0  0  0  0  0
   -0.0994   -1.1258   -0.2864 H   0  0  0  0  0  0  0  0  0  0  0  0
   -2.6856   -0.0445   -2.2572 H   0  0  0  0  0  0  0  0  0  0  0  0
   -2.3901   -1.6635    0.1884 H   0  0  0  0  0  0  0  0  0  0  0  0
   -3.3060   -2.1633   -1.2394 H   0  0  0  0  0  0  0  0  0  0  0  0
   -3.8099    0.5054    0.2007 H   0  0  0  0  0  0  0  0  0  0  0  0
   -4.6949   -1.1179    1.7852 H   0  0  0  0  0  0  0  0  0  0  0  0
   -5.1825   -2.2184    0.4787 H   0  0  0  0  0  0  0  0  0  0  0  0
   -6.3358    0.5283    1.0788 H   0  0  0  0  0  0  0  0  0  0  0  0
   -7.2384   -0.9848    0.8835 H   0  0  0  0  0  0  0  0  0  0  0  0
   -6.8267   -1.0155   -1.4874 H   0  0  0  0  0  0  0  0  0  0  0  0
   -6.8591    0.7422   -1.2255 H   0  0  0  0  0  0  0  0  0  0  0  0
    0.3984    4.2912   -1.0986 H   0  0  0  0  0  0  0  0  0  0  0  0
    1.3219   -0.7522    1.6244 H   0  0  0  0  0  0  0  0  0  0  0  0
    3.0154    0.5733   -1.3016 H   0  0  0  0  0  0  0  0  0  0  0  0
    5.3372    0.0636   -1.8069 H   0  0  0  0  0  0  0  0  0  0  0  0
    7.5267   -2.0764    0.2998 H   0  0  0  0  0  0  0  0  0  0  0  0
    7.8023   -0.3301    0.0837 H   0  0  0  0  0  0  0  0  0  0  0  0
    7.3254   -1.3520   -1.2950 H   0  0  0  0  0  0  0  0  0  0  0  0
    5.8216   -1.7154    2.0841 H   0  0  0  0  0  0  0  0  0  0  0  0
    3.4886   -1.1870    2.6140 H   0  0  0  0  0  0  0  0  0  0  0  0
  1  2  1  0
  2  3  1  0
  3  4  1  0
  4  5  1  0
  5  6  1  0
  6  7  1  0
  7  8  1  0
  8  9  1  0
  2 10  2  0
 10 11  1  0
 11 12  2  3
 11 13  1  0
 13 14  1  0
 14 15  2  0
 14 16  1  0
 13 17  2  0
 17 18  1  0
 18 19  1  0
 19 20  2  0
 20 21  1  0
 21 22  2  0
 22 23  1  0
 22 24  1  0
 24 25  2  0
 17  1  1  0
 25 19  1  0
  9  5  1  0
  1 26  1  0
  3 27  1  0
  4 28  1  0
  4 29  1  0
  5 30  1  0
  6 31  1  0
  6 32  1  0
  7 33  1  0
  7 34  1  0
  8 35  1  0
  8 36  1  0
 12 37  1  0
 18 38  1  0
 20 39  1  0
 21 40  1  0
 23 41  1  0
 23 42  1  0
 23 43  1  0
 24 44  1  0
 25 45  1  0
M  CHG  2  14   1  16  -1
M  END
>  <ScrubInfo>  (6) 
{"isomerGroup": 0, "isomerId": 5, "confId": 0, "nr_conformers:": 1, "nr_isomers:": 9}

$$$$
_i6
     RDKit          3D

 45 47  0  0  0  0  0  0  0  0999 V2000
    0.9845   -2.0856    0.8837 N   0  0  0  0  0  0  0  0  0  0  0  0
    1.3709   -1.5759   -0.3178 C   0  0  0  0  0  0  0  0  0  0  0  0
    2.6918   -1.7358   -0.6119 N   0  0  0  0  0  0  0  0  0  0  0  0
    3.7314   -1.1392    0.2351 C   0  0  0  0  0  0  0  0  0  0  0  0
    3.9082    0.3459   -0.1018 C   0  0  0  0  0  0  0  0  0  0  0  0
    4.9313    1.0465    0.7741 C   0  0  0  0  0  0  0  0  0  0  0  0
    5.3352    2.2023   -0.1072 C   0  0  0  0  0  0  0  0  0  0  0  0
    5.3374    1.5701   -1.4840 C   0  0  0  0  0  0  0  0  0  0  0  0
    4.3970    0.4851   -1.4531 O   0  0  0  0  0  0  0  0  0  0  0  0
    0.5617   -1.0240   -1.1635 N   0  0  0  0  0  0  0  0  0  0  0  0
   -0.7558   -0.8300   -0.7704 C   0  0  0  0  0  0  0  0  0  0  0  0
   -1.3400    0.1201   -1.4259 N   0  0  0  0  0  0  0  0  0  0  0  0
   -2.6220    0.5675   -1.1013 C   0  0  0  0  0  0  0  0  0  0  0  0
   -3.7037    0.2334   -1.9161 C   0  0  0  0  0  0  0  0  0  0  0  0
   -4.9891    0.6871   -1.6100 C   0  0  0  0  0  0  0  0  0  0  0  0
   -5.2033    1.5100   -0.4984 C   0  0  0  0  0  0  0  0  0  0  0  0
   -6.5882    1.9655   -0.1466 C   0  0  0  0  0  0  0  0  0  0  0  0
   -4.1144    1.8598    0.3083 C   0  0  0  0  0  0  0  0  0  0  0  0
   -2.8308    1.4030   -0.0010 C   0  0  0  0  0  0  0  0  0  0  0  0
   -1.2330   -1.6921    0.3478 C   0  0  0  0  0  0  0  0  0  0  0  0
   -2.6170   -2.0178    0.4717 N   0  0  0  0  0  4  0  0  0  0  0  0
   -3.1481   -2.5947   -0.4870 O   0  0  0  0  0  0  0  0  0  0  0  0
   -3.1713   -1.7866    1.5572 O   0  0  0  0  0  1  0  0  0  0  0  0
   -0.3475   -2.2890    1.1819 C   0  0  0  0  0  0  0  0  0  0  0  0
   -0.6319   -3.0937    2.2712 N   0  0  0  0  0  0  0  0  0  0  0  0
    1.6407   -2.6809    1.3671 H   0  0  0  0  0  0  0  0  0  0  0  0
    2.8485   -1.4070   -1.5703 H   0  0  0  0  0  0  0  0  0  0  0  0
    3.4983   -1.2717    1.2970 H   0  0  0  0  0  0  0  0  0  0  0  0
    4.6636   -1.6777    0.0297 H   0  0  0  0  0  0  0  0  0  0  0  0
    2.9459    0.8709   -0.0519 H   0  0  0  0  0  0  0  0  0  0  0  0
    5.7995    0.4021    0.9574 H   0  0  0  0  0  0  0  0  0  0  0  0
    4.5228    1.3585    1.7392 H   0  0  0  0  0  0  0  0  0  0  0  0
    6.2986    2.6444    0.1601 H   0  0  0  0  0  0  0  0  0  0  0  0
    4.5740    2.9902   -0.0597 H   0  0  0  0  0  0  0  0  0  0  0  0
    5.0576    2.2775   -2.2698 H   0  0  0  0  0  0  0  0  0  0  0  0
    6.3194    1.1502   -1.7256 H   0  0  0  0  0  0  0  0  0  0  0  0
   -3.5459   -0.3978   -2.7868 H   0  0  0  0  0  0  0  0  0  0  0  0
   -5.8198    0.3924   -2.2469 H   0  0  0  0  0  0  0  0  0  0  0  0
   -7.2018    2.0816   -1.0462 H   0  0  0  0  0  0  0  0  0  0  0  0
   -7.0649    1.2360    0.5154 H   0  0  0  0  0  0  0  0  0  0  0  0
   -6.5637    2.9377    0.3569 H   0  0  0  0  0  0  0  0  0  0  0  0
   -4.2575    2.4941    1.1799 H   0  0  0  0  0  0  0  0  0  0  0  0
   -1.9909    1.7045    0.6185 H   0  0  0  0  0  0  0  0  0  0  0  0
   -0.0556   -3.9288    2.3283 H   0  0  0  0  0  0  0  0  0  0  0  0
   -1.6222   -3.3079    2.4092 H   0  0  0  0  0  0  0  0  0  0  0  0
  1  2  1  0
  2  3  1  0
  3  4  1  0
  4  5  1  0
  5  6  1  0
  6  7  1  0
  7  8  1  0
  8  9  1  0
  2 10  2  0
 10 11  1  0
 11 12  2  3
 12 13  1  0
 13 14  2  0
 14 15  1  0
 15 16  2  0
 16 17  1  0
 16 18  1  0
 18 19  2  0
 11 20  1  0
 20 21  1  0
 21 22  2  0
 21 23  1  0
 20 24  2  0
 24 25  1  0
 24  1  1  0
  9  5  1  0
 19 13  1  0
  1 26  1  0
  3 27  1  0
  4 28  1  0
  4 29  1  0
  5 30  1  0
  6 31  1  0
  6 32  1  0
  7 33  1  0
  7 34  1  0
  8 35  1  0
  8 36  1  0
 14 37  1  0
 15 38  1  0
 17 39  1  0
 17 40  1  0
 17 41  1  0
 18 42  1  0
 19 43  1  0
 25 44  1  0
 25 45  1  0
M  CHG  2  21   1  23  -1
M  END
>  <ScrubInfo>  (7) 
{"isomerGroup": 0, "isomerId": 6, "confId": 0, "nr_conformers:": 1, "nr_isomers:": 9}

$$$$
_i7
     RDKit          3D

 45 47  0  0  0  0  0  0  0  0999 V2000
   -1.1355    0.6446   -1.3313 N   0  0  0  0  0  0  0  0  0  0  0  0
    0.1095    1.1030   -1.7526 C   0  0  0  0  0  0  0  0  0  0  0  0
    0.0910    2.1067   -2.7117 N   0  0  0  0  0  0  0  0  0  0  0  0
    1.2280    0.5373   -1.2232 C   0  0  0  0  0  0  0  0  0  0  0  0
    2.4918    0.9019   -1.7753 N   0  0  0  0  0  4  0  0  0  0  0  0
    3.0824    0.0525   -2.4550 O   0  0  0  0  0  0  0  0  0  0  0  0
    2.8659    2.0730   -1.6022 O   0  0  0  0  0  1  0  0  0  0  0  0
    1.0690   -0.5223   -0.1777 C   0  0  0  0  0  0  0  0  0  0  0  0
    1.9462   -1.1019    0.5958 N   0  0  0  0  0  0  0  0  0  0  0  0
    3.2962   -0.7476    0.6160 C   0  0  0  0  0  0  0  0  0  0  0  0
    4.2424   -1.5659   -0.0008 C   0  0  0  0  0  0  0  0  0  0  0  0
    5.5994   -1.2357    0.0405 C   0  0  0  0  0  0  0  0  0  0  0  0
    6.0303   -0.0963    0.7295 C   0  0  0  0  0  0  0  0  0  0  0  0
    7.4818    0.2813    0.7398 C   0  0  0  0  0  0  0  0  0  0  0  0
    5.0817    0.7136    1.3640 C   0  0  0  0  0  0  0  0  0  0  0  0
    3.7256    0.3801    1.3199 C   0  0  0  0  0  0  0  0  0  0  0  0
   -0.2310   -0.9287    0.0427 N   0  0  0  0  0  0  0  0  0  0  0  0
   -1.3804   -0.4093   -0.4791 C   0  0  0  0  0  0  0  0  0  0  0  0
   -2.5150   -0.9160   -0.1402 N   0  0  0  0  0  0  0  0  0  0  0  0
   -3.7277   -0.3266   -0.7083 C   0  0  0  0  0  0  0  0  0  0  0  0
   -4.9659   -1.0831   -0.2065 C   0  0  0  0  0  0  0  0  0  0  0  0
   -5.2150   -0.9292    1.2897 C   0  0  0  0  0  0  0  0  0  0  0  0
   -6.1767    0.2307    1.3534 C   0  0  0  0  0  0  0  0  0  0  0  0
   -7.0091    0.0086    0.1126 C   0  0  0  0  0  0  0  0  0  0  0  0
   -6.1265   -0.5401   -0.8744 O   0  0  0  0  0  0  0  0  0  0  0  0
   -1.9133    1.0012   -1.8691 H   0  0  0  0  0  0  0  0  0  0  0  0
   -0.6823    2.7563   -2.5895 H   0  0  0  0  0  0  0  0  0  0  0  0
    0.9715    2.6249   -2.7907 H   0  0  0  0  0  0  0  0  0  0  0  0
    3.9209   -2.4576   -0.5319 H   0  0  0  0  0  0  0  0  0  0  0  0
    6.3157   -1.8743   -0.4711 H   0  0  0  0  0  0  0  0  0  0  0  0
    7.7397    0.8168    1.6595 H   0  0  0  0  0  0  0  0  0  0  0  0
    8.1175   -0.6092    0.6939 H   0  0  0  0  0  0  0  0  0  0  0  0
    7.7076    0.9221   -0.1181 H   0  0  0  0  0  0  0  0  0  0  0  0
    5.3925    1.6074    1.8998 H   0  0  0  0  0  0  0  0  0  0  0  0
    3.0041    1.0048    1.8384 H   0  0  0  0  0  0  0  0  0  0  0  0
   -0.3500   -1.6653    0.7257 H   0  0  0  0  0  0  0  0  0  0  0  0
   -3.7071   -0.3863   -1.8041 H   0  0  0  0  0  0  0  0  0  0  0  0
   -3.8086    0.7353   -0.4440 H   0  0  0  0  0  0  0  0  0  0  0  0
   -4.8790   -2.1426   -0.4735 H   0  0  0  0  0  0  0  0  0  0  0  0
   -4.3109   -0.7758    1.8850 H   0  0  0  0  0  0  0  0  0  0  0  0
   -5.7126   -1.8304    1.6692 H   0  0  0  0  0  0  0  0  0  0  0  0
   -5.6267    1.1755    1.2744 H   0  0  0  0  0  0  0  0  0  0  0  0
   -6.7734    0.2556    2.2689 H   0  0  0  0  0  0  0  0  0  0  0  0
   -7.4574    0.9314   -0.2656 H   0  0  0  0  0  0  0  0  0  0  0  0
   -7.8066   -0.7202    0.2936 H   0  0  0  0  0  0  0  0  0  0  0  0
  1  2  1  0
  2  3  1  0
  2  4  2  0
  4  5  1  0
  5  6  2  0
  5  7  1  0
  4  8  1  0
  8  9  2  3
  9 10  1  0
 10 11  2  0
 11 12  1  0
 12 13  2  0
 13 14  1  0
 13 15  1  0
 15 16  2  0
  8 17  1  0
 17 18  1  0
 18 19  2  3
 19 20  1  0
 20 21  1  0
 21 22  1  0
 22 23  1  0
 23 24  1  0
 24 25  1  0
 18  1  1  0
 25 21  1  0
 16 10  1  0
  1 26  1  0
  3 27  1  0
  3 28  1  0
 11 29  1  0
 12 30  1  0
 14 31  1  0
 14 32  1  0
 14 33  1  0
 15 34  1  0
 16 35  1  0
 17 36  1  0
 20 37  1  0
 20 38  1  0
 21 39  1  0
 22 40  1  0
 22 41  1  0
 23 42  1  0
 23 43  1  0
 24 44  1  0
 24 45  1  0
M  CHG  2   5   1   7  -1
M  END
>  <ScrubInfo>  (8) 
{"isomerGroup": 0, "isomerId": 7, "confId": 0, "nr_conformers:": 1, "nr_isomers:": 9}

$$$$
_i8
     RDKit          3D

 45 47  0  0  0  0  0  0  0  0999 V2000
   -1.5922   -1.3267   -1.7484 N   0  0  0  0  0  0  0  0  0  0  0  0
   -1.0524   -0.9296   -0.5499 C   0  0  0  0  0  0  0  0  0  0  0  0
   -1.6567   -0.5045    0.5023 N   0  0  0  0  0  0  0  0  0  0  0  0
   -3.1163   -0.3668    0.4909 C   0  0  0  0  0  0  0  0  0  0  0  0
   -3.5528    0.4751    1.7052 C   0  0  0  0  0  0  0  0  0  0  0  0
   -5.0453    0.3570    1.9905 C   0  0  0  0  0  0  0  0  0  0  0  0
   -5.6303    1.5019    1.2027 C   0  0  0  0  0  0  0  0  0  0  0  0
   -4.5652    2.5612    1.3645 C   0  0  0  0  0  0  0  0  0  0  0  0
   -3.3110    1.8718    1.4211 O   0  0  0  0  0  0  0  0  0  0  0  0
    0.3138   -1.0401   -0.5317 N   0  0  0  0  0  0  0  0  0  0  0  0
    1.1669   -1.4520   -1.5580 C   0  0  0  0  0  0  0  0  0  0  0  0
    2.5388   -1.4868   -1.3226 N   0  0  0  0  0  0  0  0  0  0  0  0
    3.3359   -0.5817   -0.5934 C   0  0  0  0  0  0  0  0  0  0  0  0
    4.6199   -0.9909   -0.2066 C   0  0  0  0  0  0  0  0  0  0  0  0
    5.4446   -0.1626    0.5614 C   0  0  0  0  0  0  0  0  0  0  0  0
    4.9947    1.0925    0.9777 C   0  0  0  0  0  0  0  0  0  0  0  0
    5.8873    1.9984    1.7723 C   0  0  0  0  0  0  0  0  0  0  0  0
    3.7190    1.5123    0.5916 C   0  0  0  0  0  0  0  0  0  0  0  0
    2.8968    0.6795   -0.1765 C   0  0  0  0  0  0  0  0  0  0  0  0
    0.5894   -1.8484   -2.7218 C   0  0  0  0  0  0  0  0  0  0  0  0
    1.4037   -2.2432   -3.8323 N   0  0  0  0  0  4  0  0  0  0  0  0
    2.2825   -3.0952   -3.6175 O   0  0  0  0  0  0  0  0  0  0  0  0
    1.2323   -1.6621   -4.9115 O   0  0  0  0  0  1  0  0  0  0  0  0
   -0.8951   -1.8176   -2.8302 C   0  0  0  0  0  0  0  0  0  0  0  0
   -1.5202   -2.2593   -3.8774 N   0  0  0  0  0  0  0  0  0  0  0  0
   -2.5957   -1.3007   -1.8176 H   0  0  0  0  0  0  0  0  0  0  0  0
   -3.5603   -1.3668    0.5517 H   0  0  0  0  0  0  0  0  0  0  0  0
   -3.4513    0.1241   -0.4304 H   0  0  0  0  0  0  0  0  0  0  0  0
   -2.9683    0.1944    2.5887 H   0  0  0  0  0  0  0  0  0  0  0  0
   -5.4742   -0.6151    1.7321 H   0  0  0  0  0  0  0  0  0  0  0  0
   -5.2258    0.5267    3.0594 H   0  0  0  0  0  0  0  0  0  0  0  0
   -6.6112    1.8251    1.5606 H   0  0  0  0  0  0  0  0  0  0  0  0
   -5.7245    1.2194    0.1478 H   0  0  0  0  0  0  0  0  0  0  0  0
   -4.6899    3.1097    2.3043 H   0  0  0  0  0  0  0  0  0  0  0  0
   -4.5554    3.2788    0.5395 H   0  0  0  0  0  0  0  0  0  0  0  0
    0.7674   -0.8213    0.3485 H   0  0  0  0  0  0  0  0  0  0  0  0
    3.0841   -2.0533   -1.9779 H   0  0  0  0  0  0  0  0  0  0  0  0
    4.9913   -1.9715   -0.4964 H   0  0  0  0  0  0  0  0  0  0  0  0
    6.4384   -0.5097    0.8356 H   0  0  0  0  0  0  0  0  0  0  0  0
    5.2996    2.6453    2.4320 H   0  0  0  0  0  0  0  0  0  0  0  0
    6.5665    1.4193    2.4068 H   0  0  0  0  0  0  0  0  0  0  0  0
    6.4801    2.6246    1.0985 H   0  0  0  0  0  0  0  0  0  0  0  0
    3.3525    2.4946    0.8826 H   0  0  0  0  0  0  0  0  0  0  0  0
    1.9216    1.0594   -0.4690 H   0  0  0  0  0  0  0  0  0  0  0  0
   -2.5331   -2.1651   -3.7828 H   0  0  0  0  0  0  0  0  0  0  0  0
  1  2  1  0
  2  3  2  3
  3  4  1  0
  4  5  1  0
  5  6  1  0
  6  7  1  0
  7  8  1  0
  8  9  1  0
  2 10  1  0
 10 11  1  0
 11 12  1  0
 12 13  1  0
 13 14  2  0
 14 15  1  0
 15 16  2  0
 16 17  1  0
 16 18  1  0
 18 19  2  0
 11 20  2  0
 20 21  1  0
 21 22  2  0
 21 23  1  0
 20 24  1  0
 24 25  2  3
 24  1  1  0
  9  5  1  0
 19 13  1  0
  1 26  1  0
  4 27  1  0
  4 28  1  0
  5 29  1  0
  6 30  1  0
  6 31  1  0
  7 32  1  0
  7 33  1  0
  8 34  1  0
  8 35  1  0
 10 36  1  0
 12 37  1  0
 14 38  1  0
 15 39  1  0
 17 40  1  0
 17 41  1  0
 17 42  1  0
 18 43  1  0
 19 44  1  0
 25 45  1  0
M  CHG  2  21   1  23  -1
M  END
>  <ScrubInfo>  (9) 
{"isomerGroup": 0, "isomerId": 8, "confId": 0, "nr_conformers:": 1, "nr_isomers:": 9}

$$$$
