_i0
     RDKit          3D

 40 42  0  0  0  0  0  0  0  0999 V2000
    5.0326    1.1090    1.7777 C   0  0  0  0  0  0  0  0  0  0  0  0
    5.1473    1.1371    0.3615 O   0  0  0  0  0  0  0  0  0  0  0  0
    4.3569    2.1653   -0.2515 C   0  0  0  0  0  0  0  0  0  0  0  0
    2.8724    1.7817   -0.3424 C   0  0  0  0  0  0  0  0  0  0  0  0
    2.7335    0.5558   -1.1159 N   0  0  0  0  0  0  0  0  0  0  0  0
    1.4854   -0.0450   -1.0359 C   0  0  0  0  0  0  0  0  0  0  0  0
    0.3857    0.7297   -0.9460 N   0  0  0  0  0  0  0  0  0  0  0  0
   -0.8436    0.1626   -0.8585 C   0  0  0  0  0  0  0  0  0  0  0  0
   -1.9395    1.0332   -0.7879 N   0  0  0  0  0  0  0  0  0  0  0  0
   -3.0725    0.9696    0.0468 C   0  0  0  0  0  0  0  0  0  0  0  0
   -4.1806    1.7653   -0.2766 C   0  0  0  0  0  0  0  0  0  0  0  0
   -5.3340    1.7483    0.5114 C   0  0  0  0  0  0  0  0  0  0  0  0
   -5.3916    0.9374    1.6413 C   0  0  0  0  0  0  0  0  0  0  0  0
   -4.2956    0.1494    1.9832 C   0  0  0  0  0  0  0  0  0  0  0  0
   -3.1428    0.1683    1.1922 C   0  0  0  0  0  0  0  0  0  0  0  0
   -0.9226   -1.2304   -0.9114 C   0  0  0  0  0  0  0  0  0  0  0  0
   -1.9101   -2.2371   -0.9263 C   0  0  0  0  0  0  0  0  0  0  0  0
   -1.3949   -3.4711   -0.9881 N   0  0  0  0  0  0  0  0  0  0  0  0
   -0.0614   -3.2451   -1.0434 N   0  0  0  0  0  0  0  0  0  0  0  0
    0.8431   -4.3622   -1.1469 C   0  0  0  0  0  0  0  0  0  0  0  0
    0.2706   -1.9185   -1.0039 C   0  0  0  0  0  0  0  0  0  0  0  0
    1.4994   -1.3835   -1.0542 N   0  0  0  0  0  0  0  0  0  0  0  0
    5.7232    0.3525    2.1604 H   0  0  0  0  0  0  0  0  0  0  0  0
    4.0203    0.8325    2.0833 H   0  0  0  0  0  0  0  0  0  0  0  0
    5.3072    2.0773    2.2069 H   0  0  0  0  0  0  0  0  0  0  0  0
    4.7572    2.3075   -1.2616 H   0  0  0  0  0  0  0  0  0  0  0  0
    4.4841    3.1111    0.2875 H   0  0  0  0  0  0  0  0  0  0  0  0
    2.3239    2.5988   -0.8254 H   0  0  0  0  0  0  0  0  0  0  0  0
    2.4682    1.6444    0.6673 H   0  0  0  0  0  0  0  0  0  0  0  0
    3.4228   -0.1549   -0.8821 H   0  0  0  0  0  0  0  0  0  0  0  0
   -1.5841    1.9833   -0.8594 H   0  0  0  0  0  0  0  0  0  0  0  0
   -4.1557    2.3962   -1.1623 H   0  0  0  0  0  0  0  0  0  0  0  0
   -6.1862    2.3655    0.2395 H   0  0  0  0  0  0  0  0  0  0  0  0
   -6.2877    0.9213    2.2562 H   0  0  0  0  0  0  0  0  0  0  0  0
   -4.3332   -0.4789    2.8696 H   0  0  0  0  0  0  0  0  0  0  0  0
   -2.2967   -0.4382    1.5028 H   0  0  0  0  0  0  0  0  0  0  0  0
   -2.9859   -2.1193   -0.8920 H   0  0  0  0  0  0  0  0  0  0  0  0
    0.6767   -5.0203   -0.2902 H   0  0  0  0  0  0  0  0  0  0  0  0
    0.6318   -4.8895   -2.0806 H   0  0  0  0  0  0  0  0  0  0  0  0
    1.8767   -4.0093   -1.1457 H   0  0  0  0  0  0  0  0  0  0  0  0
  1  2  1  0
  2  3  1  0
  3  4  1  0
  4  5  1  0
  5  6  1  0
  6  7  2  0
  7  8  1  0
  8  9  1  0
  9 10  1  0
 10 11  2  0
 11 12  1  0
 12 13  2  0
 13 14  1  0
 14 15  2  0
  8 16  2  0
 16 17  1  0
 17 18  2  0
 18 19  1  0
 19 20  1  0
 19 21  1  0
 21 22  2  0
 22  6  1  0
 15 10  1  0
 21 16  1  0
  1 23  1  0
  1 24  1  0
  1 25  1  0
  3 26  1  0
  3 27  1  0
  4 28  1  0
  4 29  1  0
  5 30  1  0
  9 31  1  0
 11 32  1  0
 12 33  1  0
 13 34  1  0
 14 35  1  0
 15 36  1  0
 17 37  1  0
 20 38  1  0
 20 39  1  0
 20 40  1  0
M  END
>  <ScrubInfo>  (1) 
{"isomerGroup": 0, "isomerId": 0, "confId": 0, "nr_conformers:": 1, "nr_isomers:": 9}

$$$$
_i1
     RDKit          3D

 40 42  0  0  0  0  0  0  0  0999 V2000
    0.4879    0.1596    0.4982 N   0  0  0  0  0  0  0  0  0  0  0  0
   -0.8422   -0.1736    0.6796 C   0  0  0  0  0  0  0  0  0  0  0  0
   -1.7474    0.7573    1.1524 N   0  0  0  0  0  0  0  0  0  0  0  0
   -2.9787    1.1219    0.5600 C   0  0  0  0  0  0  0  0  0  0  0  0
   -3.8622    1.9159    1.3070 C   0  0  0  0  0  0  0  0  0  0  0  0
   -5.1116    2.2793    0.7980 C   0  0  0  0  0  0  0  0  0  0  0  0
   -5.4993    1.8472   -0.4668 C   0  0  0  0  0  0  0  0  0  0  0  0
   -4.6388    1.0524   -1.2191 C   0  0  0  0  0  0  0  0  0  0  0  0
   -3.3893    0.6891   -0.7072 C   0  0  0  0  0  0  0  0  0  0  0  0
   -1.1503   -1.4541    0.4414 C   0  0  0  0  0  0  0  0  0  0  0  0
   -2.3211   -2.3310    0.5527 C   0  0  0  0  0  0  0  0  0  0  0  0
   -2.0685   -3.5677    0.2025 N   0  0  0  0  0  0  0  0  0  0  0  0
   -0.7228   -3.5734   -0.2036 N   0  0  0  0  0  0  0  0  0  0  0  0
   -0.0398   -4.8374   -0.3380 C   0  0  0  0  0  0  0  0  0  0  0  0
   -0.0824   -2.3565   -0.0316 C   0  0  0  0  0  0  0  0  0  0  0  0
    1.1503   -2.0274   -0.2114 N   0  0  0  0  0  0  0  0  0  0  0  0
    1.4594   -0.7108    0.0505 C   0  0  0  0  0  0  0  0  0  0  0  0
    2.6940   -0.4280   -0.1696 N   0  0  0  0  0  0  0  0  0  0  0  0
    3.1599    0.9319    0.0700 C   0  0  0  0  0  0  0  0  0  0  0  0
    4.6550    1.0147   -0.2280 C   0  0  0  0  0  0  0  0  0  0  0  0
    5.0983    2.3529    0.0149 O   0  0  0  0  0  0  0  0  0  0  0  0
    6.4885    2.4910   -0.2493 C   0  0  0  0  0  0  0  0  0  0  0  0
    0.7304    1.1302    0.6048 H   0  0  0  0  0  0  0  0  0  0  0  0
   -1.3134    1.5564    1.6052 H   0  0  0  0  0  0  0  0  0  0  0  0
   -3.5878    2.2488    2.3054 H   0  0  0  0  0  0  0  0  0  0  0  0
   -5.7830    2.8938    1.3923 H   0  0  0  0  0  0  0  0  0  0  0  0
   -6.4710    2.1274   -0.8655 H   0  0  0  0  0  0  0  0  0  0  0  0
   -4.9372    0.7146   -2.2087 H   0  0  0  0  0  0  0  0  0  0  0  0
   -2.7390    0.0846   -1.3335 H   0  0  0  0  0  0  0  0  0  0  0  0
   -3.2836   -1.9535    0.9210 H   0  0  0  0  0  0  0  0  0  0  0  0
    0.3253   -5.1788    0.6356 H   0  0  0  0  0  0  0  0  0  0  0  0
    0.8125   -4.7502   -1.0193 H   0  0  0  0  0  0  0  0  0  0  0  0
   -0.7130   -5.6002   -0.7424 H   0  0  0  0  0  0  0  0  0  0  0  0
    2.9886    1.2311    1.1116 H   0  0  0  0  0  0  0  0  0  0  0  0
    2.6301    1.6481   -0.5704 H   0  0  0  0  0  0  0  0  0  0  0  0
    4.8460    0.7467   -1.2740 H   0  0  0  0  0  0  0  0  0  0  0  0
    5.2069    0.3207    0.4172 H   0  0  0  0  0  0  0  0  0  0  0  0
    6.7037    2.2656   -1.2982 H   0  0  0  0  0  0  0  0  0  0  0  0
    7.0701    1.8345    0.4051 H   0  0  0  0  0  0  0  0  0  0  0  0
    6.7755    3.5267   -0.0489 H   0  0  0  0  0  0  0  0  0  0  0  0
  1  2  1  0
  2  3  1  0
  3  4  1  0
  4  5  2  0
  5  6  1  0
  6  7  2  0
  7  8  1  0
  8  9  2  0
  2 10  2  0
 10 11  1  0
 11 12  2  0
 12 13  1  0
 13 14  1  0
 13 15  1  0
 15 16  2  0
 16 17  1  0
 17 18  2  3
 18 19  1  0
 19 20  1  0
 20 21  1  0
 21 22  1  0
 17  1  1  0
  9  4  1  0
 15 10  1  0
  1 23  1  0
  3 24  1  0
  5 25  1  0
  6 26  1  0
  7 27  1  0
  8 28  1  0
  9 29  1  0
 11 30  1  0
 14 31  1  0
 14 32  1  0
 14 33  1  0
 19 34  1  0
 19 35  1  0
 20 36  1  0
 20 37  1  0
 22 38  1  0
 22 39  1  0
 22 40  1  0
M  END
>  <ScrubInfo>  (2) 
{"isomerGroup": 0, "isomerId": 1, "confId": 0, "nr_conformers:": 1, "nr_isomers:": 9}

$$$$
_i2
     RDKit          3D

 40 42  0  0  0  0  0  0  0  0999 V2000
    0.1167    1.5984   -0.4839 N   0  0  0  0  0  0  0  0  0  0  0  0
    1.3239    0.9833   -0.2547 C   0  0  0  0  0  0  0  0  0  0  0  0
    2.3904    1.7395   -0.6645 N   0  0  0  0  0  0  0  0  0  0  0  0
    3.7614    1.3062   -0.4117 C   0  0  0  0  0  0  0  0  0  0  0  0
    4.1928    0.1834   -1.3624 C   0  0  0  0  0  0  0  0  0  0  0  0
    5.5726   -0.1536   -1.1818 O   0  0  0  0  0  0  0  0  0  0  0  0
    5.7737   -1.0761   -0.1181 C   0  0  0  0  0  0  0  0  0  0  0  0
    1.4431   -0.2012    0.2862 N   0  0  0  0  0  0  0  0  0  0  0  0
    0.2308   -0.7362    0.6052 C   0  0  0  0  0  0  0  0  0  0  0  0
   -1.0309   -0.1947    0.4104 C   0  0  0  0  0  0  0  0  0  0  0  0
   -1.9084   -1.1631    0.9292 C   0  0  0  0  0  0  0  0  0  0  0  0
   -1.2690   -2.2351    1.4153 N   0  0  0  0  0  0  0  0  0  0  0  0
    0.0349   -1.9510    1.1993 N   0  0  0  0  0  0  0  0  0  0  0  0
    1.0401   -2.9024    1.6007 C   0  0  0  0  0  0  0  0  0  0  0  0
   -1.1410    1.1060   -0.2195 C   0  0  0  0  0  0  0  0  0  0  0  0
   -2.2090    1.7739   -0.5336 N   0  0  0  0  0  0  0  0  0  0  0  0
   -3.4903    1.2807   -0.2811 C   0  0  0  0  0  0  0  0  0  0  0  0
   -4.1530    0.5116   -1.2416 C   0  0  0  0  0  0  0  0  0  0  0  0
   -5.4455    0.0415   -1.0011 C   0  0  0  0  0  0  0  0  0  0  0  0
   -6.0881    0.3538    0.1965 C   0  0  0  0  0  0  0  0  0  0  0  0
   -5.4431    1.1423    1.1487 C   0  0  0  0  0  0  0  0  0  0  0  0
   -4.1505    1.6108    0.9056 C   0  0  0  0  0  0  0  0  0  0  0  0
    0.1140    2.4455   -1.0276 H   0  0  0  0  0  0  0  0  0  0  0  0
    2.2725    2.7359   -0.5220 H   0  0  0  0  0  0  0  0  0  0  0  0
    3.8825    1.0115    0.6367 H   0  0  0  0  0  0  0  0  0  0  0  0
    4.4325    2.1616   -0.5560 H   0  0  0  0  0  0  0  0  0  0  0  0
    3.5666   -0.7107   -1.2685 H   0  0  0  0  0  0  0  0  0  0  0  0
    4.0865    0.5332   -2.3957 H   0  0  0  0  0  0  0  0  0  0  0  0
    5.2394   -2.0106   -0.3148 H   0  0  0  0  0  0  0  0  0  0  0  0
    5.4516   -0.6513    0.8363 H   0  0  0  0  0  0  0  0  0  0  0  0
    6.8430   -1.2958   -0.0545 H   0  0  0  0  0  0  0  0  0  0  0  0
   -2.9882   -1.1521    0.9840 H   0  0  0  0  0  0  0  0  0  0  0  0
    1.0178   -2.9846    2.6902 H   0  0  0  0  0  0  0  0  0  0  0  0
    0.8072   -3.8660    1.1403 H   0  0  0  0  0  0  0  0  0  0  0  0
    2.0271   -2.5686    1.2729 H   0  0  0  0  0  0  0  0  0  0  0  0
   -3.6579    0.2768   -2.1797 H   0  0  0  0  0  0  0  0  0  0  0  0
   -5.9509   -0.5633   -1.7494 H   0  0  0  0  0  0  0  0  0  0  0  0
   -7.0951   -0.0104    0.3840 H   0  0  0  0  0  0  0  0  0  0  0  0
   -5.9469    1.3966    2.0775 H   0  0  0  0  0  0  0  0  0  0  0  0
   -3.6533    2.2345    1.6432 H   0  0  0  0  0  0  0  0  0  0  0  0
  1  2  1  0
  2  3  1  0
  3  4  1  0
  4  5  1  0
  5  6  1  0
  6  7  1  0
  2  8  2  0
  8  9  1  0
  9 10  2  0
 10 11  1  0
 11 12  2  0
 12 13  1  0
 13 14  1  0
 10 15  1  0
 15 16  2  3
 16 17  1  0
 17 18  2  0
 18 19  1  0
 19 20  2  0
 20 21  1  0
 21 22  2  0
 15  1  1  0
 22 17  1  0
 13  9  1  0
  1 23  1  0
  3 24  1  0
  4 25  1  0
  4 26  1  0
  5 27  1  0
  5 28  1  0
  7 29  1  0
  7 30  1  0
  7 31  1  0
 11 32  1  0
 14 33  1  0
 14 34  1  0
 14 35  1  0
 18 36  1  0
 19 37  1  0
 20 38  1  0
 21 39  1  0
 22 40  1  0
M  END
>  <ScrubInfo>  (3) 
{"isomerGroup": 0, "isomerId": 2, "confId": 0, "nr_conformers:": 1, "nr_isomers:": 9}

$$$$
_i3
     RDKit          3D

 40 42  0  0  0  0  0  0  0  0999 V2000
    1.2521    1.6955   -0.5820 N   0  0  0  0  0  0  0  0  0  0  0  0
    1.5884    0.3899   -0.2958 C   0  0  0  0  0  0  0  0  0  0  0  0
    2.8102    0.0229   -0.5008 N   0  0  0  0  0  0  0  0  0  0  0  0
    3.1879   -1.3588   -0.1842 C   0  0  0  0  0  0  0  0  0  0  0  0
    3.5188   -1.5261    1.3058 C   0  0  0  0  0  0  0  0  0  0  0  0
    4.5578   -0.6666    1.7872 O   0  0  0  0  0  0  0  0  0  0  0  0
    5.8262   -0.9242    1.2056 C   0  0  0  0  0  0  0  0  0  0  0  0
    0.6572   -0.5144    0.1972 N   0  0  0  0  0  0  0  0  0  0  0  0
   -0.5712   -0.1165    0.3881 C   0  0  0  0  0  0  0  0  0  0  0  0
   -1.5479   -0.9352    0.8953 N   0  0  0  0  0  0  0  0  0  0  0  0
   -2.7419   -1.2769    0.2075 C   0  0  0  0  0  0  0  0  0  0  0  0
   -3.7574   -1.9211    0.9291 C   0  0  0  0  0  0  0  0  0  0  0  0
   -4.9493   -2.2992    0.3071 C   0  0  0  0  0  0  0  0  0  0  0  0
   -5.1366   -2.0457   -1.0491 C   0  0  0  0  0  0  0  0  0  0  0  0
   -4.1317   -1.4190   -1.7822 C   0  0  0  0  0  0  0  0  0  0  0  0
   -2.9391   -1.0408   -1.1590 C   0  0  0  0  0  0  0  0  0  0  0  0
   -0.9540    1.2557    0.1400 C   0  0  0  0  0  0  0  0  0  0  0  0
   -2.0961    2.0595    0.2756 C   0  0  0  0  0  0  0  0  0  0  0  0
   -1.8774    3.3261   -0.1147 N   0  0  0  0  0  0  0  0  0  0  0  0
   -0.5731    3.3303   -0.4878 N   0  0  0  0  0  0  0  0  0  0  0  0
    0.0201    4.5563   -0.9567 C   0  0  0  0  0  0  0  0  0  0  0  0
   -0.0012    2.1076   -0.3446 C   0  0  0  0  0  0  0  0  0  0  0  0
    2.0238    2.2698   -0.8939 H   0  0  0  0  0  0  0  0  0  0  0  0
    4.0655   -1.6028   -0.7920 H   0  0  0  0  0  0  0  0  0  0  0  0
    2.4156   -2.0768   -0.4855 H   0  0  0  0  0  0  0  0  0  0  0  0
    2.6332   -1.3085    1.9116 H   0  0  0  0  0  0  0  0  0  0  0  0
    3.7954   -2.5667    1.5122 H   0  0  0  0  0  0  0  0  0  0  0  0
    5.8497   -0.5951    0.1635 H   0  0  0  0  0  0  0  0  0  0  0  0
    6.5764   -0.3501    1.7567 H   0  0  0  0  0  0  0  0  0  0  0  0
    6.0817   -1.9858    1.2764 H   0  0  0  0  0  0  0  0  0  0  0  0
   -1.1244   -1.8036    1.2154 H   0  0  0  0  0  0  0  0  0  0  0  0
   -3.6305   -2.1195    1.9910 H   0  0  0  0  0  0  0  0  0  0  0  0
   -5.7310   -2.7889    0.8822 H   0  0  0  0  0  0  0  0  0  0  0  0
   -6.0638   -2.3380   -1.5355 H   0  0  0  0  0  0  0  0  0  0  0  0
   -4.2728   -1.2258   -2.8428 H   0  0  0  0  0  0  0  0  0  0  0  0
   -2.1689   -0.5710   -1.7655 H   0  0  0  0  0  0  0  0  0  0  0  0
   -3.0785    1.7856    0.6384 H   0  0  0  0  0  0  0  0  0  0  0  0
   -0.5597    4.9160   -1.8105 H   0  0  0  0  0  0  0  0  0  0  0  0
    1.0533    4.3775   -1.2616 H   0  0  0  0  0  0  0  0  0  0  0  0
   -0.0065    5.2844   -0.1421 H   0  0  0  0  0  0  0  0  0  0  0  0
  1  2  1  0
  2  3  2  3
  3  4  1  0
  4  5  1  0
  5  6  1  0
  6  7  1  0
  2  8  1  0
  8  9  2  0
  9 10  1  0
 10 11  1  0
 11 12  2  0
 12 13  1  0
 13 14  2  0
 14 15  1  0
 15 16  2  0
  9 17  1  0
 17 18  1  0
 18 19  2  0
 19 20  1  0
 20 21  1  0
 20 22  1  0
 22  1  1  0
 16 11  1  0
 22 17  2  0
  1 23  1  0
  4 24  1  0
  4 25  1  0
  5 26  1  0
  5 27  1  0
  7 28  1  0
  7 29  1  0
  7 30  1  0
 10 31  1  0
 12 32  1  0
 13 33  1  0
 14 34  1  0
 15 35  1  0
 16 36  1  0
 18 37  1  0
 21 38  1  0
 21 39  1  0
 21 40  1  0
M  END
>  <ScrubInfo>  (4) 
{"isomerGroup": 0, "isomerId": 3, "confId": 0, "nr_conformers:": 1, "nr_isomers:": 9}

$$$$
_i4
     RDKit          3D

 40 42  0  0  0  0  0  0  0  0999 V2000
    2.3296   -2.3900    1.6624 N   0  0  0  0  0  0  0  0  0  0  0  0
    2.3326   -1.1766    0.9819 C   0  0  0  0  0  0  0  0  0  0  0  0
    1.1095   -0.7679    0.6109 C   0  0  0  0  0  0  0  0  0  0  0  0
    0.4776    0.3601   -0.0609 C   0  0  0  0  0  0  0  0  0  0  0  0
    0.9918    1.4049   -0.6191 N   0  0  0  0  0  0  0  0  0  0  0  0
    2.3756    1.5861   -0.6523 C   0  0  0  0  0  0  0  0  0  0  0  0
    3.0149    2.3165    0.3530 C   0  0  0  0  0  0  0  0  0  0  0  0
    4.3968    2.5122    0.3144 C   0  0  0  0  0  0  0  0  0  0  0  0
    5.1444    1.9905   -0.7410 C   0  0  0  0  0  0  0  0  0  0  0  0
    4.5100    1.2828   -1.7617 C   0  0  0  0  0  0  0  0  0  0  0  0
    3.1280    1.0887   -1.7199 C   0  0  0  0  0  0  0  0  0  0  0  0
   -0.8895    0.2879   -0.0941 N   0  0  0  0  0  0  0  0  0  0  0  0
   -1.5664   -0.7124    0.3758 C   0  0  0  0  0  0  0  0  0  0  0  0
   -2.9301   -0.7289    0.3108 N   0  0  0  0  0  0  0  0  0  0  0  0
   -3.7344    0.4696    0.1528 C   0  0  0  0  0  0  0  0  0  0  0  0
   -3.6338    1.0664   -1.2571 C   0  0  0  0  0  0  0  0  0  0  0  0
   -4.7878    1.8627   -1.5601 O   0  0  0  0  0  0  0  0  0  0  0  0
   -5.8292    1.1035   -2.1607 C   0  0  0  0  0  0  0  0  0  0  0  0
   -1.0297   -1.8233    0.9675 N   0  0  0  0  0  0  0  0  0  0  0  0
    0.2523   -1.8750    1.0746 C   0  0  0  0  0  0  0  0  0  0  0  0
    1.0375   -2.8929    1.6186 N   0  0  0  0  0  0  0  0  0  0  0  0
    0.5567   -3.6991    2.7238 C   0  0  0  0  0  0  0  0  0  0  0  0
    3.0714   -3.0245    1.3573 H   0  0  0  0  0  0  0  0  0  0  0  0
    3.2807   -0.6867    0.8148 H   0  0  0  0  0  0  0  0  0  0  0  0
    2.4283    2.7380    1.1649 H   0  0  0  0  0  0  0  0  0  0  0  0
    4.8856    3.0813    1.1007 H   0  0  0  0  0  0  0  0  0  0  0  0
    6.2191    2.1504   -0.7769 H   0  0  0  0  0  0  0  0  0  0  0  0
    5.0872    0.8935   -2.5961 H   0  0  0  0  0  0  0  0  0  0  0  0
    2.6294    0.5547   -2.5245 H   0  0  0  0  0  0  0  0  0  0  0  0
   -3.3215   -1.4340    0.9224 H   0  0  0  0  0  0  0  0  0  0  0  0
   -3.4593    1.2221    0.9018 H   0  0  0  0  0  0  0  0  0  0  0  0
   -4.7757    0.2073    0.3700 H   0  0  0  0  0  0  0  0  0  0  0  0
   -3.4939    0.2924   -2.0219 H   0  0  0  0  0  0  0  0  0  0  0  0
   -2.7675    1.7337   -1.3123 H   0  0  0  0  0  0  0  0  0  0  0  0
   -6.1452    0.2839   -1.5092 H   0  0  0  0  0  0  0  0  0  0  0  0
   -6.6836    1.7653   -2.3265 H   0  0  0  0  0  0  0  0  0  0  0  0
   -5.5031    0.7101   -3.1283 H   0  0  0  0  0  0  0  0  0  0  0  0
    1.2703   -4.4977    2.9513 H   0  0  0  0  0  0  0  0  0  0  0  0
    0.4210   -3.0874    3.6218 H   0  0  0  0  0  0  0  0  0  0  0  0
   -0.3996   -4.1682    2.4713 H   0  0  0  0  0  0  0  0  0  0  0  0
  1  2  1  0
  2  3  2  0
  3  4  1  0
  4  5  2  3
  5  6  1  0
  6  7  2  0
  7  8  1  0
  8  9  2  0
  9 10  1  0
 10 11  2  0
  4 12  1  0
 12 13  2  0
 13 14  1  0
 14 15  1  0
 15 16  1  0
 16 17  1  0
 17 18  1  0
 13 19  1  0
 19 20  2  0
 20 21  1  0
 21 22  1  0
 21  1  1  0
 20  3  1  0
 11  6  1  0
  1 23  1  0
  2 24  1  0
  7 25  1  0
  8 26  1  0
  9 27  1  0
 10 28  1  0
 11 29  1  0
 14 30  1  0
 15 31  1  0
 15 32  1  0
 16 33  1  0
 16 34  1  0
 18 35  1  0
 18 36  1  0
 18 37  1  0
 22 38  1  0
 22 39  1  0
 22 40  1  0
M  END
>  <ScrubInfo>  (5) 
{"isomerGroup": 0, "isomerId": 4, "confId": 0, "nr_conformers:": 1, "nr_isomers:": 9}

$$$$
_i5
     RDKit          3D

 40 42  0  0  0  0  0  0  0  0999 V2000
    0.9768   -2.0542   -0.4349 N   0  0  0  0  0  0  0  0  0  0  0  0
    0.6674   -0.8608    0.1828 C   0  0  0  0  0  0  0  0  0  0  0  0
    1.6940   -0.4113    0.9646 N   0  0  0  0  0  0  0  0  0  0  0  0
    1.6225    0.9082    1.5892 C   0  0  0  0  0  0  0  0  0  0  0  0
    2.9363    1.1952    2.3253 C   0  0  0  0  0  0  0  0  0  0  0  0
    4.0706    1.0663    1.4543 O   0  0  0  0  0  0  0  0  0  0  0  0
    4.2746    2.2128    0.6370 C   0  0  0  0  0  0  0  0  0  0  0  0
   -0.4623   -0.2206    0.0632 N   0  0  0  0  0  0  0  0  0  0  0  0
   -1.4602   -0.7425   -0.7476 C   0  0  0  0  0  0  0  0  0  0  0  0
   -2.6040   -0.1732   -0.9582 N   0  0  0  0  0  0  0  0  0  0  0  0
   -2.8561    1.0537   -0.3296 C   0  0  0  0  0  0  0  0  0  0  0  0
   -3.4018    1.0952    0.9566 C   0  0  0  0  0  0  0  0  0  0  0  0
   -3.6825    2.3190    1.5682 C   0  0  0  0  0  0  0  0  0  0  0  0
   -3.4292    3.5105    0.8895 C   0  0  0  0  0  0  0  0  0  0  0  0
   -2.8998    3.4782   -0.4002 C   0  0  0  0  0  0  0  0  0  0  0  0
   -2.6200    2.2524   -1.0082 C   0  0  0  0  0  0  0  0  0  0  0  0
   -1.1897   -2.0038   -1.3880 C   0  0  0  0  0  0  0  0  0  0  0  0
   -1.8923   -2.8786   -2.2268 C   0  0  0  0  0  0  0  0  0  0  0  0
   -1.1732   -3.9700   -2.5396 N   0  0  0  0  0  0  0  0  0  0  0  0
    0.0018   -3.7811   -1.8876 N   0  0  0  0  0  0  0  0  0  0  0  0
    1.0348   -4.7781   -2.0037 C   0  0  0  0  0  0  0  0  0  0  0  0
    0.0207   -2.6105   -1.1989 C   0  0  0  0  0  0  0  0  0  0  0  0
    1.8003   -2.5458   -0.1157 H   0  0  0  0  0  0  0  0  0  0  0  0
    2.6228   -0.5801    0.5871 H   0  0  0  0  0  0  0  0  0  0  0  0
    1.4526    1.6661    0.8171 H   0  0  0  0  0  0  0  0  0  0  0  0
    0.7889    0.9456    2.2990 H   0  0  0  0  0  0  0  0  0  0  0  0
    2.9210    2.1864    2.7924 H   0  0  0  0  0  0  0  0  0  0  0  0
    3.0719    0.4569    3.1235 H   0  0  0  0  0  0  0  0  0  0  0  0
    5.1835    2.0549    0.0500 H   0  0  0  0  0  0  0  0  0  0  0  0
    3.4400    2.3540   -0.0546 H   0  0  0  0  0  0  0  0  0  0  0  0
    4.4112    3.1059    1.2540 H   0  0  0  0  0  0  0  0  0  0  0  0
   -3.6050    0.1664    1.4816 H   0  0  0  0  0  0  0  0  0  0  0  0
   -4.1025    2.3394    2.5698 H   0  0  0  0  0  0  0  0  0  0  0  0
   -3.6511    4.4633    1.3626 H   0  0  0  0  0  0  0  0  0  0  0  0
   -2.7100    4.4039   -0.9359 H   0  0  0  0  0  0  0  0  0  0  0  0
   -2.2161    2.2253   -2.0159 H   0  0  0  0  0  0  0  0  0  0  0  0
   -2.8955   -2.7731   -2.6196 H   0  0  0  0  0  0  0  0  0  0  0  0
    0.6684   -5.7058   -1.5570 H   0  0  0  0  0  0  0  0  0  0  0  0
    1.2563   -4.9252   -3.0638 H   0  0  0  0  0  0  0  0  0  0  0  0
    1.9346   -4.4445   -1.4824 H   0  0  0  0  0  0  0  0  0  0  0  0
  1  2  1  0
  2  3  1  0
  3  4  1  0
  4  5  1  0
  5  6  1  0
  6  7  1  0
  2  8  2  0
  8  9  1  0
  9 10  2  3
 10 11  1  0
 11 12  2  0
 12 13  1  0
 13 14  2  0
 14 15  1  0
 15 16  2  0
  9 17  1  0
 17 18  1  0
 18 19  2  0
 19 20  1  0
 20 21  1  0
 20 22  1  0
 22  1  1  0
 16 11  1  0
 22 17  2  0
  1 23  1  0
  3 24  1  0
  4 25  1  0
  4 26  1  0
  5 27  1  0
  5 28  1  0
  7 29  1  0
  7 30  1  0
  7 31  1  0
 12 32  1  0
 13 33  1  0
 14 34  1  0
 15 35  1  0
 16 36  1  0
 18 37  1  0
 21 38  1  0
 21 39  1  0
 21 40  1  0
M  END
>  <ScrubInfo>  (6) 
{"isomerGroup": 0, "isomerId": 5, "confId": 0, "nr_conformers:": 1, "nr_isomers:": 9}

$$$$
_i6
     RDKit          3D

 40 42  0  0  0  0  0  0  0  0999 V2000
   -0.5410   -3.3929    2.4230 N   0  0  0  0  0  0  0  0  0  0  0  0
   -1.3887   -2.3401    2.0948 C   0  0  0  0  0  0  0  0  0  0  0  0
   -0.8596   -1.5043    1.1900 C   0  0  0  0  0  0  0  0  0  0  0  0
   -1.2506   -0.2995    0.4502 C   0  0  0  0  0  0  0  0  0  0  0  0
   -2.4990    0.2516    0.6776 N   0  0  0  0  0  0  0  0  0  0  0  0
   -3.0800    1.4276    0.1620 C   0  0  0  0  0  0  0  0  0  0  0  0
   -2.4188    2.3401   -0.6658 C   0  0  0  0  0  0  0  0  0  0  0  0
   -3.0669    3.4819   -1.1525 C   0  0  0  0  0  0  0  0  0  0  0  0
   -4.3952    3.7302   -0.8227 C   0  0  0  0  0  0  0  0  0  0  0  0
   -5.0769    2.8353   -0.0064 C   0  0  0  0  0  0  0  0  0  0  0  0
   -4.4251    1.6965    0.4776 C   0  0  0  0  0  0  0  0  0  0  0  0
   -0.3832    0.1698   -0.3981 N   0  0  0  0  0  0  0  0  0  0  0  0
    0.8365   -0.4432   -0.5645 C   0  0  0  0  0  0  0  0  0  0  0  0
    1.5839    0.1258   -1.4413 N   0  0  0  0  0  0  0  0  0  0  0  0
    2.9142   -0.4239   -1.7074 C   0  0  0  0  0  0  0  0  0  0  0  0
    3.9466    0.0322   -0.6655 C   0  0  0  0  0  0  0  0  0  0  0  0
    4.0613    1.4487   -0.4983 O   0  0  0  0  0  0  0  0  0  0  0  0
    4.4444    2.1364   -1.6786 C   0  0  0  0  0  0  0  0  0  0  0  0
    1.2953   -1.5581    0.0999 N   0  0  0  0  0  0  0  0  0  0  0  0
    0.4904   -2.0644    0.9666 C   0  0  0  0  0  0  0  0  0  0  0  0
    0.6833   -3.1622    1.8057 N   0  0  0  0  0  0  0  0  0  0  0  0
    1.4907   -4.2917    1.3864 C   0  0  0  0  0  0  0  0  0  0  0  0
   -0.5043   -3.5931    3.4256 H   0  0  0  0  0  0  0  0  0  0  0  0
   -2.3568   -2.2886    2.5703 H   0  0  0  0  0  0  0  0  0  0  0  0
   -3.0972   -0.2294    1.3342 H   0  0  0  0  0  0  0  0  0  0  0  0
   -1.3806    2.1965   -0.9514 H   0  0  0  0  0  0  0  0  0  0  0  0
   -2.5237    4.1735   -1.7918 H   0  0  0  0  0  0  0  0  0  0  0  0
   -4.8947    4.6167   -1.2034 H   0  0  0  0  0  0  0  0  0  0  0  0
   -6.1160    3.0196    0.2530 H   0  0  0  0  0  0  0  0  0  0  0  0
   -4.9897    1.0143    1.1081 H   0  0  0  0  0  0  0  0  0  0  0  0
    2.9003   -1.5187   -1.7741 H   0  0  0  0  0  0  0  0  0  0  0  0
    3.2154   -0.0772   -2.7019 H   0  0  0  0  0  0  0  0  0  0  0  0
    4.9334   -0.3696   -0.9245 H   0  0  0  0  0  0  0  0  0  0  0  0
    3.6915   -0.3739    0.3185 H   0  0  0  0  0  0  0  0  0  0  0  0
    3.6213    2.1615   -2.3977 H   0  0  0  0  0  0  0  0  0  0  0  0
    4.6861    3.1681   -1.4084 H   0  0  0  0  0  0  0  0  0  0  0  0
    5.3308    1.6789   -2.1283 H   0  0  0  0  0  0  0  0  0  0  0  0
    1.6048   -5.0046    2.2094 H   0  0  0  0  0  0  0  0  0  0  0  0
    1.0265   -4.8085    0.5399 H   0  0  0  0  0  0  0  0  0  0  0  0
    2.4912   -3.9611    1.0895 H   0  0  0  0  0  0  0  0  0  0  0  0
  1  2  1  0
  2  3  2  0
  3  4  1  0
  4  5  1  0
  5  6  1  0
  6  7  2  0
  7  8  1  0
  8  9  2  0
  9 10  1  0
 10 11  2  0
  4 12  2  0
 12 13  1  0
 13 14  2  3
 14 15  1  0
 15 16  1  0
 16 17  1  0
 17 18  1  0
 13 19  1  0
 19 20  2  0
 20 21  1  0
 21 22  1  0
 21  1  1  0
 20  3  1  0
 11  6  1  0
  1 23  1  0
  2 24  1  0
  5 25  1  0
  7 26  1  0
  8 27  1  0
  9 28  1  0
 10 29  1  0
 11 30  1  0
 15 31  1  0
 15 32  1  0
 16 33  1  0
 16 34  1  0
 18 35  1  0
 18 36  1  0
 18 37  1  0
 22 38  1  0
 22 39  1  0
 22 40  1  0
M  END
>  <ScrubInfo>  (7) 
{"isomerGroup": 0, "isomerId": 6, "confId": 0, "nr_conformers:": 1, "nr_isomers:": 9}

$$$$
_i7
     RDKit          3D

 40 42  0  0  0  0  0  0  0  0999 V2000
    1.6451    1.9145    1.7397 N   0  0  0  0  0  0  0  0  0  0  0  0
    2.1411    0.8776    0.9572 C   0  0  0  0  0  0  0  0  0  0  0  0
    1.2031    0.2656    0.2205 C   0  0  0  0  0  0  0  0  0  0  0  0
    1.0588   -0.8556   -0.7290 C   0  0  0  0  0  0  0  0  0  0  0  0
    1.9686   -1.6502   -1.2104 N   0  0  0  0  0  0  0  0  0  0  0  0
    3.3102   -1.5044   -0.8476 C   0  0  0  0  0  0  0  0  0  0  0  0
    3.8302   -2.2216    0.2331 C   0  0  0  0  0  0  0  0  0  0  0  0
    5.1751   -2.0922    0.5852 C   0  0  0  0  0  0  0  0  0  0  0  0
    6.0106   -1.2550   -0.1536 C   0  0  0  0  0  0  0  0  0  0  0  0
    5.5046   -0.5551   -1.2485 C   0  0  0  0  0  0  0  0  0  0  0  0
    4.1592   -0.6864   -1.5980 C   0  0  0  0  0  0  0  0  0  0  0  0
   -0.2405   -1.0372   -1.1186 N   0  0  0  0  0  0  0  0  0  0  0  0
   -1.3321   -0.3093   -0.7391 C   0  0  0  0  0  0  0  0  0  0  0  0
   -2.4910   -0.6500   -1.2016 N   0  0  0  0  0  0  0  0  0  0  0  0
   -3.6385    0.1605   -0.7807 C   0  0  0  0  0  0  0  0  0  0  0  0
   -4.9023   -0.3757   -1.4592 C   0  0  0  0  0  0  0  0  0  0  0  0
   -6.0562    0.4171   -1.1665 O   0  0  0  0  0  0  0  0  0  0  0  0
   -6.6024    0.1496    0.1175 C   0  0  0  0  0  0  0  0  0  0  0  0
   -1.2189    0.7681    0.1133 N   0  0  0  0  0  0  0  0  0  0  0  0
   -0.0342    1.0572    0.5547 C   0  0  0  0  0  0  0  0  0  0  0  0
    0.3140    2.1111    1.4028 N   0  0  0  0  0  0  0  0  0  0  0  0
   -0.6073    2.5974    2.4117 C   0  0  0  0  0  0  0  0  0  0  0  0
    2.2400    2.7463    1.7336 H   0  0  0  0  0  0  0  0  0  0  0  0
    3.1981    0.6610    1.0084 H   0  0  0  0  0  0  0  0  0  0  0  0
    3.1828   -2.8857    0.7991 H   0  0  0  0  0  0  0  0  0  0  0  0
    5.5712   -2.6522    1.4283 H   0  0  0  0  0  0  0  0  0  0  0  0
    7.0598   -1.1598    0.1150 H   0  0  0  0  0  0  0  0  0  0  0  0
    6.1582    0.0834   -1.8370 H   0  0  0  0  0  0  0  0  0  0  0  0
    3.7687   -0.1543   -2.4612 H   0  0  0  0  0  0  0  0  0  0  0  0
   -0.4226   -1.7948   -1.7593 H   0  0  0  0  0  0  0  0  0  0  0  0
   -3.7593    0.1167    0.3076 H   0  0  0  0  0  0  0  0  0  0  0  0
   -3.5083    1.2128   -1.0625 H   0  0  0  0  0  0  0  0  0  0  0  0
   -5.0826   -1.4252   -1.1960 H   0  0  0  0  0  0  0  0  0  0  0  0
   -4.7651   -0.3439   -2.5462 H   0  0  0  0  0  0  0  0  0  0  0  0
   -6.8614   -0.9090    0.2150 H   0  0  0  0  0  0  0  0  0  0  0  0
   -7.5159    0.7402    0.2289 H   0  0  0  0  0  0  0  0  0  0  0  0
   -5.9078    0.4438    0.9085 H   0  0  0  0  0  0  0  0  0  0  0  0
   -0.1949    3.4807    2.9101 H   0  0  0  0  0  0  0  0  0  0  0  0
   -0.7973    1.8283    3.1677 H   0  0  0  0  0  0  0  0  0  0  0  0
   -1.5606    2.8856    1.9572 H   0  0  0  0  0  0  0  0  0  0  0  0
  1  2  1  0
  2  3  2  0
  3  4  1  0
  4  5  2  3
  5  6  1  0
  6  7  2  0
  7  8  1  0
  8  9  2  0
  9 10  1  0
 10 11  2  0
  4 12  1  0
 12 13  1  0
 13 14  2  3
 14 15  1  0
 15 16  1  0
 16 17  1  0
 17 18  1  0
 13 19  1  0
 19 20  2  0
 20 21  1  0
 21 22  1  0
 21  1  1  0
 20  3  1  0
 11  6  1  0
  1 23  1  0
  2 24  1  0
  7 25  1  0
  8 26  1  0
  9 27  1  0
 10 28  1  0
 11 29  1  0
 12 30  1  0
 15 31  1  0
 15 32  1  0
 16 33  1  0
 16 34  1  0
 18 35  1  0
 18 36  1  0
 18 37  1  0
 22 38  1  0
 22 39  1  0
 22 40  1  0
M  END
>  <ScrubInfo>  (8) 
{"isomerGroup": 0, "isomerId": 7, "confId": 0, "nr_conformers:": 1, "nr_isomers:": 9}

$$$$
_i8
     RDKit          3D

 40 42  0  0  0  0  0  0  0  0999 V2000
    0.9473   -0.9790    0.2789 N   0  0  0  0  0  0  0  0  0  0  0  0
    1.3099    0.3327    0.0214 C   0  0  0  0  0  0  0  0  0  0  0  0
    2.5007    0.8261   -0.0530 N   0  0  0  0  0  0  0  0  0  0  0  0
    3.6298   -0.0789    0.1538 C   0  0  0  0  0  0  0  0  0  0  0  0
    4.9373    0.6992    0.0226 C   0  0  0  0  0  0  0  0  0  0  0  0
    6.0298   -0.2001    0.2274 O   0  0  0  0  0  0  0  0  0  0  0  0
    7.2789    0.4700    0.1170 C   0  0  0  0  0  0  0  0  0  0  0  0
    0.2319    1.1685   -0.1705 N   0  0  0  0  0  0  0  0  0  0  0  0
   -1.1268    0.9372   -0.1506 C   0  0  0  0  0  0  0  0  0  0  0  0
   -1.9732    1.8997   -0.3635 N   0  0  0  0  0  0  0  0  0  0  0  0
   -3.3535    1.6953   -0.3504 C   0  0  0  0  0  0  0  0  0  0  0  0
   -4.0813    1.8732    0.8294 C   0  0  0  0  0  0  0  0  0  0  0  0
   -5.4664    1.6977    0.8382 C   0  0  0  0  0  0  0  0  0  0  0  0
   -6.1326    1.3595   -0.3393 C   0  0  0  0  0  0  0  0  0  0  0  0
   -5.4165    1.2064   -1.5260 C   0  0  0  0  0  0  0  0  0  0  0  0
   -4.0314    1.3826   -1.5319 C   0  0  0  0  0  0  0  0  0  0  0  0
   -1.4079   -0.4615    0.1287 C   0  0  0  0  0  0  0  0  0  0  0  0
   -2.5440   -1.2785    0.2800 C   0  0  0  0  0  0  0  0  0  0  0  0
   -2.2357   -2.5566    0.5480 N   0  0  0  0  0  0  0  0  0  0  0  0
   -0.8856   -2.5661    0.5618 N   0  0  0  0  0  0  0  0  0  0  0  0
   -0.1916   -3.8008    0.8290 C   0  0  0  0  0  0  0  0  0  0  0  0
   -0.3578   -1.3340    0.3235 C   0  0  0  0  0  0  0  0  0  0  0  0
    1.6950   -1.6423    0.4328 H   0  0  0  0  0  0  0  0  0  0  0  0
    3.6236   -0.8901   -0.5849 H   0  0  0  0  0  0  0  0  0  0  0  0
    3.5880   -0.5380    1.1494 H   0  0  0  0  0  0  0  0  0  0  0  0
    5.0101    1.1472   -0.9756 H   0  0  0  0  0  0  0  0  0  0  0  0
    4.9744    1.5013    0.7693 H   0  0  0  0  0  0  0  0  0  0  0  0
    7.3972    0.8977   -0.8832 H   0  0  0  0  0  0  0  0  0  0  0  0
    7.3613    1.2546    0.8754 H   0  0  0  0  0  0  0  0  0  0  0  0
    8.0764   -0.2595    0.2814 H   0  0  0  0  0  0  0  0  0  0  0  0
    0.4834    2.1278   -0.3597 H   0  0  0  0  0  0  0  0  0  0  0  0
   -3.5644    2.1497    1.7442 H   0  0  0  0  0  0  0  0  0  0  0  0
   -6.0243    1.8309    1.7613 H   0  0  0  0  0  0  0  0  0  0  0  0
   -7.2114    1.2254   -0.3342 H   0  0  0  0  0  0  0  0  0  0  0  0
   -5.9354    0.9563   -2.4476 H   0  0  0  0  0  0  0  0  0  0  0  0
   -3.4758    1.2763   -2.4594 H   0  0  0  0  0  0  0  0  0  0  0  0
   -3.5910   -1.0165    0.2127 H   0  0  0  0  0  0  0  0  0  0  0  0
   -0.7967   -4.6372    0.4691 H   0  0  0  0  0  0  0  0  0  0  0  0
    0.7678   -3.7979    0.3066 H   0  0  0  0  0  0  0  0  0  0  0  0
   -0.0394   -3.8782    1.9081 H   0  0  0  0  0  0  0  0  0  0  0  0
  1  2  1  0
  2  3  2  3
  3  4  1  0
  4  5  1  0
  5  6  1  0
  6  7  1  0
  2  8  1  0
  8  9  1  0
  9 10  2  3
 10 11  1  0
 11 12  2  0
 12 13  1  0
 13 14  2  0
 14 15  1  0
 15 16  2  0
  9 17  1  0
 17 18  1  0
 18 19  2  0
 19 20  1  0
 20 21  1  0
 20 22  1  0
 22  1  1  0
 16 11  1  0
 22 17  2  0
  1 23  1  0
  4 24  1  0
  4 25  1  0
  5 26  1  0
  5 27  1  0
  7 28  1  0
  7 29  1  0
  7 30  1  0
  8 31  1  0
 12 32  1  0
 13 33  1  0
 14 34  1  0
 15 35  1  0
 16 36  1  0
 18 37  1  0
 21 38  1  0
 21 39  1  0
 21 40  1  0
M  END
>  <ScrubInfo>  (9) 
{"isomerGroup": 0, "isomerId": 8, "confId": 0, "nr_conformers:": 1, "nr_isomers:": 9}

$$$$
