REMARK SMILES COCCNc1nc(Nc2ccccc2)c2cnn(C)c2n1
REMARK SMILES IDX 4 1 3 2 2 3 1 4 5 5 6 7 7 8 22 9 8 10 21 11 16 12 19 13
REMARK SMILES IDX 17 14 18 15 20 16 9 17 10 19 11 20 15 21 12 22 14 23 13 24
REMARK H PARENT 5 6 9 18
ROOT
ATOM      1  C   UNL     1       2.872   1.782  -0.342  1.00  0.00     0.144 C 
ENDROOT
BRANCH   1   2
ATOM      2  C   UNL     1       4.357   2.165  -0.252  1.00  0.00     0.181 C 
BRANCH   2   3
ATOM      3  O   UNL     1       5.147   1.137   0.361  1.00  0.00    -0.383 OA
ATOM      4  C   UNL     1       5.033   1.109   1.778  1.00  0.00     0.194 C 
ENDBRANCH   2   3
ENDBRANCH   1   2
BRANCH   1   5
ATOM      5  N   UNL     1       2.733   0.556  -1.116  1.00  0.00    -0.352 N 
ATOM      6  H   UNL     1       3.423  -0.155  -0.882  1.00  0.00     0.163 HD
BRANCH   5   7
ATOM      7  C   UNL     1       1.485  -0.045  -1.036  1.00  0.00     0.226 A 
ATOM      8  N   UNL     1       0.386   0.730  -0.946  1.00  0.00    -0.195 NA
ATOM      9  N   UNL     1       1.499  -1.383  -1.054  1.00  0.00    -0.193 NA
ATOM     10  C   UNL     1      -0.844   0.163  -0.859  1.00  0.00     0.147 A 
ATOM     11  C   UNL     1       0.271  -1.919  -1.004  1.00  0.00     0.165 A 
ATOM     12  C   UNL     1      -0.923  -1.230  -0.911  1.00  0.00     0.082 A 
ATOM     13  N   UNL     1      -0.061  -3.245  -1.043  1.00  0.00    -0.250 N 
ATOM     14  C   UNL     1      -1.910  -2.237  -0.926  1.00  0.00     0.149 A 
ATOM     15  N   UNL     1      -1.395  -3.471  -0.988  1.00  0.00    -0.179 NA
ATOM     16  C   UNL     1       0.843  -4.362  -1.147  1.00  0.00     0.176 C 
BRANCH  10  17
ATOM     17  N   UNL     1      -1.940   1.033  -0.788  1.00  0.00    -0.339 N 
ATOM     18  H   UNL     1      -1.584   1.983  -0.859  1.00  0.00     0.168 HD
BRANCH  17  19
ATOM     19  C   UNL     1      -3.072   0.970   0.047  1.00  0.00     0.040 A 
ATOM     20  C   UNL     1      -4.181   1.765  -0.277  1.00  0.00     0.026 A 
ATOM     21  C   UNL     1      -3.143   0.168   1.192  1.00  0.00     0.026 A 
ATOM     22  C   UNL     1      -5.334   1.748   0.511  1.00  0.00     0.002 A 
ATOM     23  C   UNL     1      -4.296   0.149   1.983  1.00  0.00     0.002 A 
ATOM     24  C   UNL     1      -5.392   0.937   1.641  1.00  0.00     0.000 A 
ENDBRANCH  17  19
ENDBRANCH  10  17
ENDBRANCH   5   7
ENDBRANCH   1   5
TORSDOF 6
