_i0
     RDKit          3D

 40 42  0  0  0  0  0  0  0  0999 V2000
    4.8423    2.9334    0.2703 O   0  0  0  0  0  0  0  0  0  0  0  0
    5.0676    1.9759   -0.7541 C   0  0  0  0  0  0  0  0  0  0  0  0
    4.5403    0.6175   -0.3172 C   0  0  0  0  0  0  0  0  0  0  0  0
    3.0242    0.6338   -0.1147 C   0  0  0  0  0  0  0  0  0  0  0  0
    2.5773   -0.7207    0.2181 N   0  0  0  0  0  0  0  0  0  0  0  0
    1.1748   -0.8703    0.3486 C   0  0  0  0  0  0  0  0  0  0  0  0
    0.3826    0.1913    0.1211 N   0  0  0  0  0  0  0  0  0  0  0  0
   -0.9417    0.0406    0.2561 C   0  0  0  0  0  0  0  0  0  0  0  0
   -1.6823    1.1946    0.0135 N   0  0  0  0  0  0  0  0  0  0  0  0
   -3.0468    1.4998    0.0216 C   0  0  0  0  0  0  0  0  0  0  0  0
   -3.4405    2.8170   -0.2700 C   0  0  0  0  0  0  0  0  0  0  0  0
   -4.7875    3.1928   -0.2757 C   0  0  0  0  0  0  0  0  0  0  0  0
   -5.7710    2.2533    0.0130 C   0  0  0  0  0  0  0  0  0  0  0  0
   -5.4040    0.9437    0.3063 C   0  0  0  0  0  0  0  0  0  0  0  0
   -4.0538    0.5738    0.3105 C   0  0  0  0  0  0  0  0  0  0  0  0
   -1.5207   -1.1128    0.6026 N   0  0  0  0  0  0  0  0  0  0  0  0
   -0.7404   -2.1760    0.8073 C   0  0  0  0  0  0  0  0  0  0  0  0
   -1.3368   -3.3836    1.1523 C   0  0  0  0  0  0  0  0  0  0  0  0
   -0.5887   -4.5436    1.3717 C   0  0  0  0  0  0  0  0  0  0  0  0
    0.7923   -4.5062    1.2407 C   0  0  0  0  0  0  0  0  0  0  0  0
    1.4118   -3.3065    0.8985 C   0  0  0  0  0  0  0  0  0  0  0  0
    0.6501   -2.1274    0.6872 C   0  0  0  0  0  0  0  0  0  0  0  0
    5.2229    3.7753   -0.0354 H   0  0  0  0  0  0  0  0  0  0  0  0
    4.5732    2.3153   -1.6699 H   0  0  0  0  0  0  0  0  0  0  0  0
    6.1449    1.9170   -0.9386 H   0  0  0  0  0  0  0  0  0  0  0  0
    4.8067   -0.1332   -1.0711 H   0  0  0  0  0  0  0  0  0  0  0  0
    5.0228    0.3206    0.6225 H   0  0  0  0  0  0  0  0  0  0  0  0
    2.7600    1.3285    0.6919 H   0  0  0  0  0  0  0  0  0  0  0  0
    2.5474    0.9742   -1.0424 H   0  0  0  0  0  0  0  0  0  0  0  0
    3.0055   -1.0434    1.0829 H   0  0  0  0  0  0  0  0  0  0  0  0
   -1.0469    1.9396   -0.2298 H   0  0  0  0  0  0  0  0  0  0  0  0
   -2.6922    3.5722   -0.4979 H   0  0  0  0  0  0  0  0  0  0  0  0
   -5.0640    4.2183   -0.5050 H   0  0  0  0  0  0  0  0  0  0  0  0
   -6.8191    2.5390    0.0103 H   0  0  0  0  0  0  0  0  0  0  0  0
   -6.1651    0.2020    0.5339 H   0  0  0  0  0  0  0  0  0  0  0  0
   -3.8118   -0.4581    0.5445 H   0  0  0  0  0  0  0  0  0  0  0  0
   -2.4198   -3.4237    1.2495 H   0  0  0  0  0  0  0  0  0  0  0  0
   -1.0904   -5.4707    1.6367 H   0  0  0  0  0  0  0  0  0  0  0  0
    1.3841   -5.4040    1.3978 H   0  0  0  0  0  0  0  0  0  0  0  0
    2.4926   -3.2891    0.7793 H   0  0  0  0  0  0  0  0  0  0  0  0
  1  2  1  0
  2  3  1  0
  3  4  1  0
  4  5  1  0
  5  6  1  0
  6  7  2  0
  7  8  1  0
  8  9  1  0
  9 10  1  0
 10 11  2  0
 11 12  1  0
 12 13  2  0
 13 14  1  0
 14 15  2  0
  8 16  2  0
 16 17  1  0
 17 18  2  0
 18 19  1  0
 19 20  2  0
 20 21  1  0
 21 22  2  0
 22  6  1  0
 15 10  1  0
 22 17  1  0
  1 23  1  0
  2 24  1  0
  2 25  1  0
  3 26  1  0
  3 27  1  0
  4 28  1  0
  4 29  1  0
  5 30  1  0
  9 31  1  0
 11 32  1  0
 12 33  1  0
 13 34  1  0
 14 35  1  0
 15 36  1  0
 18 37  1  0
 19 38  1  0
 20 39  1  0
 21 40  1  0
M  END
>  <ScrubInfo>  (1) 
{"isomerGroup": 0, "isomerId": 0, "confId": 0, "nr_conformers:": 1, "nr_isomers:": 6}

$$$$
_i1
     RDKit          3D

 40 42  0  0  0  0  0  0  0  0999 V2000
    0.1697    0.5825    0.1519 N   0  0  0  0  0  0  0  0  0  0  0  0
   -1.1090    0.0932    0.2523 C   0  0  0  0  0  0  0  0  0  0  0  0
   -2.0442    1.1007    0.2517 N   0  0  0  0  0  0  0  0  0  0  0  0
   -3.4496    0.9759    0.1987 C   0  0  0  0  0  0  0  0  0  0  0  0
   -4.2390    2.0725    0.5869 C   0  0  0  0  0  0  0  0  0  0  0  0
   -5.6349    2.0240    0.5178 C   0  0  0  0  0  0  0  0  0  0  0  0
   -6.2678    0.8804    0.0422 C   0  0  0  0  0  0  0  0  0  0  0  0
   -5.5040   -0.2070   -0.3704 C   0  0  0  0  0  0  0  0  0  0  0  0
   -4.1076   -0.1540   -0.2997 C   0  0  0  0  0  0  0  0  0  0  0  0
   -1.3527   -1.1810    0.3467 N   0  0  0  0  0  0  0  0  0  0  0  0
   -0.2496   -2.0636    0.3542 C   0  0  0  0  0  0  0  0  0  0  0  0
   -0.5023   -3.4323    0.4774 C   0  0  0  0  0  0  0  0  0  0  0  0
    0.5482   -4.3549    0.4928 C   0  0  0  0  0  0  0  0  0  0  0  0
    1.8685   -3.9170    0.3844 C   0  0  0  0  0  0  0  0  0  0  0  0
    2.1426   -2.5553    0.2606 C   0  0  0  0  0  0  0  0  0  0  0  0
    1.0863   -1.6378    0.2473 C   0  0  0  0  0  0  0  0  0  0  0  0
    1.3181   -0.1714    0.1123 C   0  0  0  0  0  0  0  0  0  0  0  0
    2.5288    0.2523   -0.0333 N   0  0  0  0  0  0  0  0  0  0  0  0
    2.7686    1.6853   -0.1597 C   0  0  0  0  0  0  0  0  0  0  0  0
    4.2698    1.9292   -0.2654 C   0  0  0  0  0  0  0  0  0  0  0  0
    5.0093    1.5631    1.0146 C   0  0  0  0  0  0  0  0  0  0  0  0
    6.3893    1.8864    0.8763 O   0  0  0  0  0  0  0  0  0  0  0  0
    0.2604    1.5516   -0.0996 H   0  0  0  0  0  0  0  0  0  0  0  0
   -1.7537    1.9481    0.7182 H   0  0  0  0  0  0  0  0  0  0  0  0
   -3.7752    2.9835    0.9562 H   0  0  0  0  0  0  0  0  0  0  0  0
   -6.2254    2.8801    0.8332 H   0  0  0  0  0  0  0  0  0  0  0  0
   -7.3521    0.8375   -0.0137 H   0  0  0  0  0  0  0  0  0  0  0  0
   -5.9894   -1.1007   -0.7539 H   0  0  0  0  0  0  0  0  0  0  0  0
   -3.5469   -1.0154   -0.6525 H   0  0  0  0  0  0  0  0  0  0  0  0
   -1.5292   -3.7782    0.5633 H   0  0  0  0  0  0  0  0  0  0  0  0
    0.3330   -5.4162    0.5899 H   0  0  0  0  0  0  0  0  0  0  0  0
    2.6836   -4.6364    0.3962 H   0  0  0  0  0  0  0  0  0  0  0  0
    3.1705   -2.2136    0.1750 H   0  0  0  0  0  0  0  0  0  0  0  0
    2.2889    2.0674   -1.0685 H   0  0  0  0  0  0  0  0  0  0  0  0
    2.3655    2.2297    0.7025 H   0  0  0  0  0  0  0  0  0  0  0  0
    4.4522    2.9864   -0.4944 H   0  0  0  0  0  0  0  0  0  0  0  0
    4.6909    1.3624   -1.1054 H   0  0  0  0  0  0  0  0  0  0  0  0
    4.9271    0.4961    1.2442 H   0  0  0  0  0  0  0  0  0  0  0  0
    4.6177    2.1288    1.8657 H   0  0  0  0  0  0  0  0  0  0  0  0
    6.7436    1.3178    0.1709 H   0  0  0  0  0  0  0  0  0  0  0  0
  1  2  1  0
  2  3  1  0
  3  4  1  0
  4  5  2  0
  5  6  1  0
  6  7  2  0
  7  8  1  0
  8  9  2  0
  2 10  2  0
 10 11  1  0
 11 12  2  0
 12 13  1  0
 13 14  2  0
 14 15  1  0
 15 16  2  0
 16 17  1  0
 17 18  2  3
 18 19  1  0
 19 20  1  0
 20 21  1  0
 21 22  1  0
 17  1  1  0
  9  4  1  0
 16 11  1  0
  1 23  1  0
  3 24  1  0
  5 25  1  0
  6 26  1  0
  7 27  1  0
  8 28  1  0
  9 29  1  0
 12 30  1  0
 13 31  1  0
 14 32  1  0
 15 33  1  0
 19 34  1  0
 19 35  1  0
 20 36  1  0
 20 37  1  0
 21 38  1  0
 21 39  1  0
 22 40  1  0
M  END
>  <ScrubInfo>  (2) 
{"isomerGroup": 0, "isomerId": 1, "confId": 0, "nr_conformers:": 1, "nr_isomers:": 6}

$$$$
_i2
     RDKit          3D

 40 42  0  0  0  0  0  0  0  0999 V2000
    0.5204   -0.4222   -0.5047 N   0  0  0  0  0  0  0  0  0  0  0  0
   -0.7973   -0.3716   -0.8926 C   0  0  0  0  0  0  0  0  0  0  0  0
   -1.7021    0.4190   -0.1868 N   0  0  0  0  0  0  0  0  0  0  0  0
   -1.4769    0.9802    1.1408 C   0  0  0  0  0  0  0  0  0  0  0  0
   -2.6704    1.8474    1.5418 C   0  0  0  0  0  0  0  0  0  0  0  0
   -2.4420    2.5314    2.8816 C   0  0  0  0  0  0  0  0  0  0  0  0
   -2.3132    1.5679    3.9168 O   0  0  0  0  0  0  0  0  0  0  0  0
   -1.1594   -1.1088   -1.9736 C   0  0  0  0  0  0  0  0  0  0  0  0
   -2.4768   -1.1749   -2.5843 C   0  0  0  0  0  0  0  0  0  0  0  0
   -2.7121   -1.9652   -3.6413 C   0  0  0  0  0  0  0  0  0  0  0  0
   -1.6715   -2.7809   -4.2163 C   0  0  0  0  0  0  0  0  0  0  0  0
   -0.4184   -2.7748   -3.7442 C   0  0  0  0  0  0  0  0  0  0  0  0
   -0.0387   -1.9230   -2.5807 C   0  0  0  0  0  0  0  0  0  0  0  0
    1.1951   -1.9489   -2.1840 N   0  0  0  0  0  0  0  0  0  0  0  0
    1.5047   -1.1538   -1.1130 C   0  0  0  0  0  0  0  0  0  0  0  0
    2.7579   -1.1841   -0.7775 N   0  0  0  0  0  0  0  0  0  0  0  0
    3.1913   -0.4114    0.3056 C   0  0  0  0  0  0  0  0  0  0  0  0
    3.6692    0.8851    0.0990 C   0  0  0  0  0  0  0  0  0  0  0  0
    4.0865    1.6650    1.1791 C   0  0  0  0  0  0  0  0  0  0  0  0
    4.0368    1.1457    2.4724 C   0  0  0  0  0  0  0  0  0  0  0  0
    3.5790   -0.1544    2.6846 C   0  0  0  0  0  0  0  0  0  0  0  0
    3.1633   -0.9317    1.6021 C   0  0  0  0  0  0  0  0  0  0  0  0
    0.7946    0.1817    0.2505 H   0  0  0  0  0  0  0  0  0  0  0  0
   -2.6674    0.1496   -0.3492 H   0  0  0  0  0  0  0  0  0  0  0  0
   -1.3355    0.1668    1.8614 H   0  0  0  0  0  0  0  0  0  0  0  0
   -0.5703    1.5961    1.1354 H   0  0  0  0  0  0  0  0  0  0  0  0
   -2.8529    2.6080    0.7732 H   0  0  0  0  0  0  0  0  0  0  0  0
   -3.5675    1.2183    1.5974 H   0  0  0  0  0  0  0  0  0  0  0  0
   -1.5292    3.1351    2.8612 H   0  0  0  0  0  0  0  0  0  0  0  0
   -3.2785    3.1939    3.1261 H   0  0  0  0  0  0  0  0  0  0  0  0
   -3.1919    1.1781    4.0695 H   0  0  0  0  0  0  0  0  0  0  0  0
   -3.2799   -0.5615   -2.1949 H   0  0  0  0  0  0  0  0  0  0  0  0
   -3.6964   -2.0028   -4.0992 H   0  0  0  0  0  0  0  0  0  0  0  0
   -1.9314   -3.4065   -5.0652 H   0  0  0  0  0  0  0  0  0  0  0  0
    0.3676   -3.3804   -4.1800 H   0  0  0  0  0  0  0  0  0  0  0  0
    3.7170    1.2826   -0.9114 H   0  0  0  0  0  0  0  0  0  0  0  0
    4.4579    2.6720    1.0090 H   0  0  0  0  0  0  0  0  0  0  0  0
    4.3674    1.7494    3.3138 H   0  0  0  0  0  0  0  0  0  0  0  0
    3.5535   -0.5670    3.6896 H   0  0  0  0  0  0  0  0  0  0  0  0
    2.8173   -1.9494    1.7628 H   0  0  0  0  0  0  0  0  0  0  0  0
  1  2  1  0
  2  3  1  0
  3  4  1  0
  4  5  1  0
  5  6  1  0
  6  7  1  0
  2  8  2  0
  8  9  1  0
  9 10  2  0
 10 11  1  0
 11 12  2  0
 12 13  1  0
 13 14  2  0
 14 15  1  0
 15 16  2  3
 16 17  1  0
 17 18  2  0
 18 19  1  0
 19 20  2  0
 20 21  1  0
 21 22  2  0
 15  1  1  0
 22 17  1  0
 13  8  1  0
  1 23  1  0
  3 24  1  0
  4 25  1  0
  4 26  1  0
  5 27  1  0
  5 28  1  0
  6 29  1  0
  6 30  1  0
  7 31  1  0
  9 32  1  0
 10 33  1  0
 11 34  1  0
 12 35  1  0
 18 36  1  0
 19 37  1  0
 20 38  1  0
 21 39  1  0
 22 40  1  0
M  END
>  <ScrubInfo>  (3) 
{"isomerGroup": 0, "isomerId": 2, "confId": 0, "nr_conformers:": 1, "nr_isomers:": 6}

$$$$
_i3
     RDKit          3D

 40 42  0  0  0  0  0  0  0  0999 V2000
    1.4217   -0.8937   -0.2106 N   0  0  0  0  0  0  0  0  0  0  0  0
    0.9901    0.3079    0.2887 C   0  0  0  0  0  0  0  0  0  0  0  0
    1.7541    1.3042    0.6232 N   0  0  0  0  0  0  0  0  0  0  0  0
    3.1407    1.1865    0.4817 C   0  0  0  0  0  0  0  0  0  0  0  0
    3.9215    0.7407    1.5512 C   0  0  0  0  0  0  0  0  0  0  0  0
    5.3046    0.6134    1.4118 C   0  0  0  0  0  0  0  0  0  0  0  0
    5.9151    0.9430    0.2019 C   0  0  0  0  0  0  0  0  0  0  0  0
    5.1448    1.4068   -0.8641 C   0  0  0  0  0  0  0  0  0  0  0  0
    3.7619    1.5330   -0.7210 C   0  0  0  0  0  0  0  0  0  0  0  0
   -0.3454    0.5632    0.4752 N   0  0  0  0  0  0  0  0  0  0  0  0
   -1.2274   -0.3761    0.2768 C   0  0  0  0  0  0  0  0  0  0  0  0
   -2.5753   -0.0905    0.4361 N   0  0  0  0  0  0  0  0  0  0  0  0
   -3.0197    1.2789    0.6686 C   0  0  0  0  0  0  0  0  0  0  0  0
   -4.5069    1.2891    1.0109 C   0  0  0  0  0  0  0  0  0  0  0  0
   -5.0052    2.6881    1.3457 C   0  0  0  0  0  0  0  0  0  0  0  0
   -4.9413    3.5326    0.2052 O   0  0  0  0  0  0  0  0  0  0  0  0
   -0.8228   -1.7612   -0.1265 C   0  0  0  0  0  0  0  0  0  0  0  0
   -1.7285   -2.8203   -0.2519 C   0  0  0  0  0  0  0  0  0  0  0  0
   -1.2705   -4.0772   -0.6510 C   0  0  0  0  0  0  0  0  0  0  0  0
    0.0834   -4.2746   -0.9203 C   0  0  0  0  0  0  0  0  0  0  0  0
    0.9877   -3.2203   -0.7761 C   0  0  0  0  0  0  0  0  0  0  0  0
    0.5424   -1.9631   -0.3577 C   0  0  0  0  0  0  0  0  0  0  0  0
    2.4131   -1.0687   -0.2274 H   0  0  0  0  0  0  0  0  0  0  0  0
    3.4441    0.4990    2.4973 H   0  0  0  0  0  0  0  0  0  0  0  0
    5.9045    0.2685    2.2498 H   0  0  0  0  0  0  0  0  0  0  0  0
    6.9931    0.8523    0.0946 H   0  0  0  0  0  0  0  0  0  0  0  0
    5.6198    1.6805   -1.8025 H   0  0  0  0  0  0  0  0  0  0  0  0
    3.1603    1.9072   -1.5452 H   0  0  0  0  0  0  0  0  0  0  0  0
   -3.2004   -0.6107   -0.1682 H   0  0  0  0  0  0  0  0  0  0  0  0
   -2.4567    1.7195    1.4998 H   0  0  0  0  0  0  0  0  0  0  0  0
   -2.8300    1.8782   -0.2290 H   0  0  0  0  0  0  0  0  0  0  0  0
   -5.0734    0.8916    0.1596 H   0  0  0  0  0  0  0  0  0  0  0  0
   -4.6939    0.6260    1.8642 H   0  0  0  0  0  0  0  0  0  0  0  0
   -6.0529    2.6383    1.6583 H   0  0  0  0  0  0  0  0  0  0  0  0
   -4.4332    3.1408    2.1626 H   0  0  0  0  0  0  0  0  0  0  0  0
   -4.0443    3.9084    0.1602 H   0  0  0  0  0  0  0  0  0  0  0  0
   -2.7826   -2.6932   -0.0308 H   0  0  0  0  0  0  0  0  0  0  0  0
   -1.9698   -4.9042   -0.7510 H   0  0  0  0  0  0  0  0  0  0  0  0
    0.4370   -5.2530   -1.2372 H   0  0  0  0  0  0  0  0  0  0  0  0
    2.0404   -3.3911   -0.9860 H   0  0  0  0  0  0  0  0  0  0  0  0
  1  2  1  0
  2  3  2  3
  3  4  1  0
  4  5  2  0
  5  6  1  0
  6  7  2  0
  7  8  1  0
  8  9  2  0
  2 10  1  0
 10 11  2  0
 11 12  1  0
 12 13  1  0
 13 14  1  0
 14 15  1  0
 15 16  1  0
 11 17  1  0
 17 18  2  0
 18 19  1  0
 19 20  2  0
 20 21  1  0
 21 22  2  0
 22  1  1  0
  9  4  1  0
 22 17  1  0
  1 23  1  0
  5 24  1  0
  6 25  1  0
  7 26  1  0
  8 27  1  0
  9 28  1  0
 12 29  1  0
 13 30  1  0
 13 31  1  0
 14 32  1  0
 14 33  1  0
 15 34  1  0
 15 35  1  0
 16 36  1  0
 18 37  1  0
 19 38  1  0
 20 39  1  0
 21 40  1  0
M  END
>  <ScrubInfo>  (4) 
{"isomerGroup": 0, "isomerId": 3, "confId": 0, "nr_conformers:": 1, "nr_isomers:": 6}

$$$$
_i4
     RDKit          3D

 40 42  0  0  0  0  0  0  0  0999 V2000
    1.1135    1.1333    0.6341 N   0  0  0  0  0  0  0  0  0  0  0  0
    0.9054    0.3731   -0.4818 C   0  0  0  0  0  0  0  0  0  0  0  0
    2.0294    0.0472   -1.1908 N   0  0  0  0  0  0  0  0  0  0  0  0
    3.2611   -0.4203   -0.6813 C   0  0  0  0  0  0  0  0  0  0  0  0
    3.4374   -0.8614    0.6361 C   0  0  0  0  0  0  0  0  0  0  0  0
    4.6883   -1.2952    1.0853 C   0  0  0  0  0  0  0  0  0  0  0  0
    5.7813   -1.2916    0.2226 C   0  0  0  0  0  0  0  0  0  0  0  0
    5.6236   -0.8583   -1.0908 C   0  0  0  0  0  0  0  0  0  0  0  0
    4.3722   -0.4272   -1.5378 C   0  0  0  0  0  0  0  0  0  0  0  0
   -0.2550    0.0059   -0.9382 N   0  0  0  0  0  0  0  0  0  0  0  0
   -1.3845    0.3741   -0.2392 C   0  0  0  0  0  0  0  0  0  0  0  0
   -2.5492   -0.0636   -0.5920 N   0  0  0  0  0  0  0  0  0  0  0  0
   -2.5957   -0.9488   -1.7617 C   0  0  0  0  0  0  0  0  0  0  0  0
   -4.0534   -1.3168   -2.0544 C   0  0  0  0  0  0  0  0  0  0  0  0
   -4.7019   -2.1014   -0.9167 C   0  0  0  0  0  0  0  0  0  0  0  0
   -4.8697   -1.2862    0.2374 O   0  0  0  0  0  0  0  0  0  0  0  0
   -1.2696    1.2893    0.9292 C   0  0  0  0  0  0  0  0  0  0  0  0
   -2.3921    1.7586    1.6192 C   0  0  0  0  0  0  0  0  0  0  0  0
   -2.2212    2.6076    2.7124 C   0  0  0  0  0  0  0  0  0  0  0  0
   -0.9368    2.9777    3.1142 C   0  0  0  0  0  0  0  0  0  0  0  0
    0.1816    2.5057    2.4212 C   0  0  0  0  0  0  0  0  0  0  0  0
    0.0196    1.6738    1.3108 C   0  0  0  0  0  0  0  0  0  0  0  0
    2.0066    1.5973    0.7211 H   0  0  0  0  0  0  0  0  0  0  0  0
    1.7913   -0.4349   -2.0532 H   0  0  0  0  0  0  0  0  0  0  0  0
    2.5994   -0.9064    1.3272 H   0  0  0  0  0  0  0  0  0  0  0  0
    4.8048   -1.6444    2.1084 H   0  0  0  0  0  0  0  0  0  0  0  0
    6.7530   -1.6308    0.5722 H   0  0  0  0  0  0  0  0  0  0  0  0
    6.4736   -0.8540   -1.7684 H   0  0  0  0  0  0  0  0  0  0  0  0
    4.2713   -0.0822   -2.5646 H   0  0  0  0  0  0  0  0  0  0  0  0
   -2.1854   -0.4420   -2.6435 H   0  0  0  0  0  0  0  0  0  0  0  0
   -2.0199   -1.8643   -1.5792 H   0  0  0  0  0  0  0  0  0  0  0  0
   -4.0875   -1.9191   -2.9691 H   0  0  0  0  0  0  0  0  0  0  0  0
   -4.6252   -0.3981   -2.2338 H   0  0  0  0  0  0  0  0  0  0  0  0
   -4.0989   -2.9728   -0.6424 H   0  0  0  0  0  0  0  0  0  0  0  0
   -5.6923   -2.4547   -1.2193 H   0  0  0  0  0  0  0  0  0  0  0  0
   -4.0597   -0.7325    0.2822 H   0  0  0  0  0  0  0  0  0  0  0  0
   -3.3932    1.4671    1.3118 H   0  0  0  0  0  0  0  0  0  0  0  0
   -3.0898    2.9744    3.2545 H   0  0  0  0  0  0  0  0  0  0  0  0
   -0.8067    3.6308    3.9742 H   0  0  0  0  0  0  0  0  0  0  0  0
    1.1744    2.7911    2.7585 H   0  0  0  0  0  0  0  0  0  0  0  0
  1  2  1  0
  2  3  1  0
  3  4  1  0
  4  5  2  0
  5  6  1  0
  6  7  2  0
  7  8  1  0
  8  9  2  0
  2 10  2  0
 10 11  1  0
 11 12  2  3
 12 13  1  0
 13 14  1  0
 14 15  1  0
 15 16  1  0
 11 17  1  0
 17 18  2  0
 18 19  1  0
 19 20  2  0
 20 21  1  0
 21 22  2  0
 22  1  1  0
  9  4  1  0
 22 17  1  0
  1 23  1  0
  3 24  1  0
  5 25  1  0
  6 26  1  0
  7 27  1  0
  8 28  1  0
  9 29  1  0
 13 30  1  0
 13 31  1  0
 14 32  1  0
 14 33  1  0
 15 34  1  0
 15 35  1  0
 16 36  1  0
 18 37  1  0
 19 38  1  0
 20 39  1  0
 21 40  1  0
M  END
>  <ScrubInfo>  (5) 
{"isomerGroup": 0, "isomerId": 4, "confId": 0, "nr_conformers:": 1, "nr_isomers:": 6}

$$$$
_i5
     RDKit          3D

 40 42  0  0  0  0  0  0  0  0999 V2000
    1.2923   -0.6642    0.1097 N   0  0  0  0  0  0  0  0  0  0  0  0
    1.2048    0.5824    0.6728 C   0  0  0  0  0  0  0  0  0  0  0  0
    2.1752    1.4268    0.8725 N   0  0  0  0  0  0  0  0  0  0  0  0
    3.4707    1.0716    0.4770 C   0  0  0  0  0  0  0  0  0  0  0  0
    4.3256    0.4160    1.3664 C   0  0  0  0  0  0  0  0  0  0  0  0
    5.6150    0.0555    0.9709 C   0  0  0  0  0  0  0  0  0  0  0  0
    6.0587    0.3595   -0.3158 C   0  0  0  0  0  0  0  0  0  0  0  0
    5.2169    1.0289   -1.2034 C   0  0  0  0  0  0  0  0  0  0  0  0
    3.9281    1.3879   -0.8047 C   0  0  0  0  0  0  0  0  0  0  0  0
   -0.0596    0.9127    1.0552 N   0  0  0  0  0  0  0  0  0  0  0  0
   -1.2304    0.2015    0.9843 C   0  0  0  0  0  0  0  0  0  0  0  0
   -2.2330    0.7594    1.5734 N   0  0  0  0  0  0  0  0  0  0  0  0
   -3.5783    0.2733    1.7567 C   0  0  0  0  0  0  0  0  0  0  0  0
   -4.5103    0.7297    0.6316 C   0  0  0  0  0  0  0  0  0  0  0  0
   -4.6229    2.2480    0.5227 C   0  0  0  0  0  0  0  0  0  0  0  0
   -3.6806    2.7414   -0.4219 O   0  0  0  0  0  0  0  0  0  0  0  0
   -1.1269   -1.1088    0.2507 C   0  0  0  0  0  0  0  0  0  0  0  0
   -2.1988   -1.9382   -0.0896 C   0  0  0  0  0  0  0  0  0  0  0  0
   -1.9844   -3.1455   -0.7637 C   0  0  0  0  0  0  0  0  0  0  0  0
   -0.6971   -3.5340   -1.1167 C   0  0  0  0  0  0  0  0  0  0  0  0
    0.3807   -2.7064   -0.8127 C   0  0  0  0  0  0  0  0  0  0  0  0
    0.1802   -1.4881   -0.1448 C   0  0  0  0  0  0  0  0  0  0  0  0
    2.1940   -0.9694   -0.2256 H   0  0  0  0  0  0  0  0  0  0  0  0
    3.9815    0.1901    2.3722 H   0  0  0  0  0  0  0  0  0  0  0  0
    6.2741   -0.4531    1.6695 H   0  0  0  0  0  0  0  0  0  0  0  0
    7.0651    0.0857   -0.6226 H   0  0  0  0  0  0  0  0  0  0  0  0
    5.5652    1.2801   -2.2018 H   0  0  0  0  0  0  0  0  0  0  0  0
    3.2743    1.9198   -1.4908 H   0  0  0  0  0  0  0  0  0  0  0  0
   -0.1448    1.8087    1.5132 H   0  0  0  0  0  0  0  0  0  0  0  0
   -3.6185   -0.8079    1.9101 H   0  0  0  0  0  0  0  0  0  0  0  0
   -3.9518    0.6875    2.7020 H   0  0  0  0  0  0  0  0  0  0  0  0
   -4.1869    0.3142   -0.3284 H   0  0  0  0  0  0  0  0  0  0  0  0
   -5.5046    0.3232    0.8524 H   0  0  0  0  0  0  0  0  0  0  0  0
   -5.6169    2.5204    0.1539 H   0  0  0  0  0  0  0  0  0  0  0  0
   -4.4658    2.7409    1.4877 H   0  0  0  0  0  0  0  0  0  0  0  0
   -3.5826    3.6935   -0.2552 H   0  0  0  0  0  0  0  0  0  0  0  0
   -3.2229   -1.6777    0.1285 H   0  0  0  0  0  0  0  0  0  0  0  0
   -2.8311   -3.7792   -1.0184 H   0  0  0  0  0  0  0  0  0  0  0  0
   -0.5343   -4.4727   -1.6402 H   0  0  0  0  0  0  0  0  0  0  0  0
    1.3802   -3.0137   -1.1104 H   0  0  0  0  0  0  0  0  0  0  0  0
  1  2  1  0
  2  3  2  3
  3  4  1  0
  4  5  2  0
  5  6  1  0
  6  7  2  0
  7  8  1  0
  8  9  2  0
  2 10  1  0
 10 11  1  0
 11 12  2  3
 12 13  1  0
 13 14  1  0
 14 15  1  0
 15 16  1  0
 11 17  1  0
 17 18  2  0
 18 19  1  0
 19 20  2  0
 20 21  1  0
 21 22  2  0
 22  1  1  0
  9  4  1  0
 22 17  1  0
  1 23  1  0
  5 24  1  0
  6 25  1  0
  7 26  1  0
  8 27  1  0
  9 28  1  0
 10 29  1  0
 13 30  1  0
 13 31  1  0
 14 32  1  0
 14 33  1  0
 15 34  1  0
 15 35  1  0
 16 36  1  0
 18 37  1  0
 19 38  1  0
 20 39  1  0
 21 40  1  0
M  END
>  <ScrubInfo>  (6) 
{"isomerGroup": 0, "isomerId": 5, "confId": 0, "nr_conformers:": 1, "nr_isomers:": 6}

$$$$
