REMARK SMILES OCCCNc1nc(Nc2ccccc2)nc2ccccc12
REMARK SMILES IDX 4 1 3 2 2 3 1 4 5 6 6 8 7 9 22 10 8 11 21 12 17 13 16 14
REMARK SMILES IDX 20 15 18 16 19 17 9 18 10 20 11 21 15 22 12 23 14 24 13 25
REMARK H PARENT 1 5 5 7 9 19
ROOT
ATOM      1  C   UNL     1       3.024   0.634  -0.115  1.00  0.00     0.117 C 
ENDROOT
BRANCH   1   2
ATOM      2  C   UNL     1       4.540   0.618  -0.317  1.00  0.00     0.049 C 
BRANCH   2   3
ATOM      3  C   UNL     1       5.068   1.976  -0.754  1.00  0.00     0.158 C 
BRANCH   3   4
ATOM      4  O   UNL     1       4.842   2.933   0.270  1.00  0.00    -0.396 OA
ATOM      5  H   UNL     1       5.223   3.775  -0.035  1.00  0.00     0.210 HD
ENDBRANCH   3   4
ENDBRANCH   2   3
ENDBRANCH   1   2
BRANCH   1   6
ATOM      6  N   UNL     1       2.577  -0.721   0.218  1.00  0.00    -0.369 N 
ATOM      7  H   UNL     1       3.006  -1.043   1.083  1.00  0.00     0.162 HD
BRANCH   6   8
ATOM      8  C   UNL     1       1.175  -0.870   0.349  1.00  0.00     0.139 A 
ATOM      9  N   UNL     1       0.383   0.191   0.121  1.00  0.00    -0.195 NA
ATOM     10  C   UNL     1       0.650  -2.127   0.687  1.00  0.00     0.043 A 
ATOM     11  C   UNL     1      -0.942   0.041   0.256  1.00  0.00     0.229 A 
ATOM     12  C   UNL     1       1.412  -3.307   0.898  1.00  0.00     0.014 A 
ATOM     13  C   UNL     1      -0.740  -2.176   0.807  1.00  0.00     0.078 A 
ATOM     14  N   UNL     1      -1.521  -1.113   0.603  1.00  0.00    -0.213 NA
ATOM     15  C   UNL     1       0.792  -4.506   1.241  1.00  0.00     0.001 A 
ATOM     16  C   UNL     1      -1.337  -3.384   1.152  1.00  0.00     0.029 A 
ATOM     17  C   UNL     1      -0.589  -4.544   1.372  1.00  0.00     0.002 A 
BRANCH  11  18
ATOM     18  N   UNL     1      -1.682   1.195   0.013  1.00  0.00    -0.324 N 
ATOM     19  H   UNL     1      -1.047   1.940  -0.230  1.00  0.00     0.170 HD
BRANCH  18  20
ATOM     20  C   UNL     1      -3.047   1.500   0.022  1.00  0.00     0.041 A 
ATOM     21  C   UNL     1      -3.441   2.817  -0.270  1.00  0.00     0.026 A 
ATOM     22  C   UNL     1      -4.054   0.574   0.310  1.00  0.00     0.026 A 
ATOM     23  C   UNL     1      -4.787   3.193  -0.276  1.00  0.00     0.002 A 
ATOM     24  C   UNL     1      -5.404   0.944   0.306  1.00  0.00     0.002 A 
ATOM     25  C   UNL     1      -5.771   2.253   0.013  1.00  0.00     0.000 A 
ENDBRANCH  18  20
ENDBRANCH  11  18
ENDBRANCH   6   8
ENDBRANCH   1   6
TORSDOF 7
