_i0
     RDKit          3D

 50 53  0  0  0  0  0  0  0  0999 V2000
   -7.7912   -0.1032    0.3517 C   0  0  0  0  0  0  0  0  0  0  0  0
   -7.0976   -0.8312   -0.7895 C   0  0  0  0  0  0  0  0  0  0  0  0
   -5.6137   -0.9521   -0.5565 C   0  0  0  0  0  0  0  0  0  0  0  0
   -4.7405    0.0487   -0.9964 C   0  0  0  0  0  0  0  0  0  0  0  0
   -3.3651   -0.0548   -0.7645 C   0  0  0  0  0  0  0  0  0  0  0  0
   -2.8366   -1.1472   -0.0689 C   0  0  0  0  0  0  0  0  0  0  0  0
   -1.4554   -1.3216    0.1577 N   0  0  0  0  0  0  0  0  0  0  0  0
   -0.4580   -0.3340    0.1836 C   0  0  0  0  0  0  0  0  0  0  0  0
    0.7098   -0.6219   -0.4436 N   0  0  0  0  0  0  0  0  0  0  0  0
    1.7134    0.2750   -0.4501 C   0  0  0  0  0  0  0  0  0  0  0  0
    2.8446   -0.1240   -1.1501 N   0  0  0  0  0  0  0  0  0  0  0  0
    4.1050    0.2918   -0.5456 C   0  0  0  0  0  0  0  0  0  0  0  0
    5.2697   -0.4233   -1.2572 C   0  0  0  0  0  0  0  0  0  0  0  0
    6.6317    0.0017   -0.7263 C   0  0  0  0  0  0  0  0  0  0  0  0
    6.9064   -1.0196    0.3490 C   0  0  0  0  0  0  0  0  0  0  0  0
    6.2972   -2.2689   -0.2449 C   0  0  0  0  0  0  0  0  0  0  0  0
    5.1632   -1.8463   -1.0134 O   0  0  0  0  0  0  0  0  0  0  0  0
    1.6948    1.4776    0.1442 N   0  0  0  0  0  0  0  0  0  0  0  0
    0.5401    1.7253    0.7797 C   0  0  0  0  0  0  0  0  0  0  0  0
   -0.5559    0.8892    0.8495 C   0  0  0  0  0  0  0  0  0  0  0  0
   -1.4830    1.5904    1.6478 C   0  0  0  0  0  0  0  0  0  0  0  0
   -1.0316    2.7889    2.0383 N   0  0  0  0  0  0  0  0  0  0  0  0
    0.2045    2.8453    1.4899 N   0  0  0  0  0  0  0  0  0  0  0  0
    1.0189    4.0155    1.6985 C   0  0  0  0  0  0  0  0  0  0  0  0
   -3.7119   -2.1559    0.3504 C   0  0  0  0  0  0  0  0  0  0  0  0
   -5.0872   -2.0566    0.1211 C   0  0  0  0  0  0  0  0  0  0  0  0
   -7.3984    0.9121    0.4724 H   0  0  0  0  0  0  0  0  0  0  0  0
   -8.8657   -0.0301    0.1564 H   0  0  0  0  0  0  0  0  0  0  0  0
   -7.6540   -0.6313    1.3015 H   0  0  0  0  0  0  0  0  0  0  0  0
   -7.5347   -1.8296   -0.9122 H   0  0  0  0  0  0  0  0  0  0  0  0
   -7.2811   -0.3022   -1.7327 H   0  0  0  0  0  0  0  0  0  0  0  0
   -5.1233    0.9156   -1.5307 H   0  0  0  0  0  0  0  0  0  0  0  0
   -2.7161    0.7268   -1.1508 H   0  0  0  0  0  0  0  0  0  0  0  0
   -1.0937   -2.0844   -0.4121 H   0  0  0  0  0  0  0  0  0  0  0  0
    2.7724   -1.1337   -1.2594 H   0  0  0  0  0  0  0  0  0  0  0  0
    4.2300    1.3767   -0.6436 H   0  0  0  0  0  0  0  0  0  0  0  0
    4.1105    0.0278    0.5198 H   0  0  0  0  0  0  0  0  0  0  0  0
    5.2032   -0.2560   -2.3384 H   0  0  0  0  0  0  0  0  0  0  0  0
    6.6665    1.0342   -0.3675 H   0  0  0  0  0  0  0  0  0  0  0  0
    7.3811   -0.1015   -1.5208 H   0  0  0  0  0  0  0  0  0  0  0  0
    6.3786   -0.7442    1.2693 H   0  0  0  0  0  0  0  0  0  0  0  0
    7.9677   -1.1336    0.5845 H   0  0  0  0  0  0  0  0  0  0  0  0
    6.9966   -2.7665   -0.9253 H   0  0  0  0  0  0  0  0  0  0  0  0
    5.9800   -2.9865    0.5167 H   0  0  0  0  0  0  0  0  0  0  0  0
   -2.4711    1.2747    1.9587 H   0  0  0  0  0  0  0  0  0  0  0  0
    1.9682    3.9111    1.1683 H   0  0  0  0  0  0  0  0  0  0  0  0
    0.4768    4.8847    1.3175 H   0  0  0  0  0  0  0  0  0  0  0  0
    1.2024    4.1195    2.7709 H   0  0  0  0  0  0  0  0  0  0  0  0
   -3.3245   -3.0240    0.8789 H   0  0  0  0  0  0  0  0  0  0  0  0
   -5.7430   -2.8482    0.4761 H   0  0  0  0  0  0  0  0  0  0  0  0
  1  2  1  0
  2  3  1  0
  3  4  2  0
  4  5  1  0
  5  6  2  0
  6  7  1  0
  7  8  1  0
  8  9  2  0
  9 10  1  0
 10 11  1  0
 11 12  1  0
 12 13  1  0
 13 14  1  0
 14 15  1  0
 15 16  1  0
 16 17  1  0
 10 18  2  0
 18 19  1  0
 19 20  2  0
 20 21  1  0
 21 22  2  0
 22 23  1  0
 23 24  1  0
  6 25  1  0
 25 26  2  0
 26  3  1  0
 20  8  1  0
 17 13  1  0
 23 19  1  0
  1 27  1  0
  1 28  1  0
  1 29  1  0
  2 30  1  0
  2 31  1  0
  4 32  1  0
  5 33  1  0
  7 34  1  0
 11 35  1  0
 12 36  1  0
 12 37  1  0
 13 38  1  0
 14 39  1  0
 14 40  1  0
 15 41  1  0
 15 42  1  0
 16 43  1  0
 16 44  1  0
 21 45  1  0
 24 46  1  0
 24 47  1  0
 24 48  1  0
 25 49  1  0
 26 50  1  0
M  END
>  <ScrubInfo>  (1) 
{"isomerGroup": 0, "isomerId": 0, "confId": 0, "nr_conformers:": 1, "nr_isomers:": 9}

$$$$
_i1
     RDKit          3D

 50 53  0  0  0  0  0  0  0  0999 V2000
   -1.1349    0.0381    1.5388 N   0  0  0  0  0  0  0  0  0  0  0  0
   -2.1727   -0.7585    1.1181 C   0  0  0  0  0  0  0  0  0  0  0  0
   -3.3365   -0.5042    1.7878 N   0  0  0  0  0  0  0  0  0  0  0  0
   -4.6135   -1.0862    1.3831 C   0  0  0  0  0  0  0  0  0  0  0  0
   -5.4045   -0.1426    0.4612 C   0  0  0  0  0  0  0  0  0  0  0  0
   -4.8733   -0.0141   -0.9623 C   0  0  0  0  0  0  0  0  0  0  0  0
   -4.2329    1.3516   -0.9887 C   0  0  0  0  0  0  0  0  0  0  0  0
   -5.0826    2.1188   -0.0044 C   0  0  0  0  0  0  0  0  0  0  0  0
   -5.4159    1.1881    1.0337 O   0  0  0  0  0  0  0  0  0  0  0  0
   -2.0561   -1.6645    0.1825 N   0  0  0  0  0  0  0  0  0  0  0  0
   -0.7945   -1.7031   -0.3310 C   0  0  0  0  0  0  0  0  0  0  0  0
    0.3082   -0.9430    0.0278 C   0  0  0  0  0  0  0  0  0  0  0  0
    1.3315   -1.3914   -0.8261 C   0  0  0  0  0  0  0  0  0  0  0  0
    0.9245   -2.3555   -1.6623 N   0  0  0  0  0  0  0  0  0  0  0  0
   -0.3754   -2.5308   -1.3339 N   0  0  0  0  0  0  0  0  0  0  0  0
   -1.1534   -3.5195   -2.0365 C   0  0  0  0  0  0  0  0  0  0  0  0
    0.1657    0.0327    1.0903 C   0  0  0  0  0  0  0  0  0  0  0  0
    1.0646    0.8142    1.6069 N   0  0  0  0  0  0  0  0  0  0  0  0
    2.3891    0.8088    1.1665 C   0  0  0  0  0  0  0  0  0  0  0  0
    3.3282   -0.0349    1.7631 C   0  0  0  0  0  0  0  0  0  0  0  0
    4.6598   -0.0233    1.3405 C   0  0  0  0  0  0  0  0  0  0  0  0
    5.0721    0.8446    0.3212 C   0  0  0  0  0  0  0  0  0  0  0  0
    6.5117    0.8700   -0.1254 C   0  0  0  0  0  0  0  0  0  0  0  0
    7.3374    1.8598    0.6820 C   0  0  0  0  0  0  0  0  0  0  0  0
    4.1348    1.7135   -0.2522 C   0  0  0  0  0  0  0  0  0  0  0  0
    2.8042    1.6983    0.1734 C   0  0  0  0  0  0  0  0  0  0  0  0
   -1.2844    0.6124    2.3518 H   0  0  0  0  0  0  0  0  0  0  0  0
   -3.4721    0.4605    2.0788 H   0  0  0  0  0  0  0  0  0  0  0  0
   -4.4964   -2.0783    0.9336 H   0  0  0  0  0  0  0  0  0  0  0  0
   -5.1931   -1.2232    2.3037 H   0  0  0  0  0  0  0  0  0  0  0  0
   -6.4417   -0.4971    0.4253 H   0  0  0  0  0  0  0  0  0  0  0  0
   -5.7194   -0.0253   -1.6612 H   0  0  0  0  0  0  0  0  0  0  0  0
   -4.2024   -0.8204   -1.2677 H   0  0  0  0  0  0  0  0  0  0  0  0
   -3.2013    1.2902   -0.6268 H   0  0  0  0  0  0  0  0  0  0  0  0
   -4.2175    1.8059   -1.9828 H   0  0  0  0  0  0  0  0  0  0  0  0
   -6.0147    2.4650   -0.4643 H   0  0  0  0  0  0  0  0  0  0  0  0
   -4.5606    2.9781    0.4249 H   0  0  0  0  0  0  0  0  0  0  0  0
    2.3616   -1.0691   -0.8910 H   0  0  0  0  0  0  0  0  0  0  0  0
   -1.1301   -3.2815   -3.1031 H   0  0  0  0  0  0  0  0  0  0  0  0
   -0.7068   -4.5002   -1.8545 H   0  0  0  0  0  0  0  0  0  0  0  0
   -2.1856   -3.5107   -1.6799 H   0  0  0  0  0  0  0  0  0  0  0  0
    3.0201   -0.7060    2.5600 H   0  0  0  0  0  0  0  0  0  0  0  0
    5.3732   -0.6929    1.8155 H   0  0  0  0  0  0  0  0  0  0  0  0
    6.5627    1.1265   -1.1906 H   0  0  0  0  0  0  0  0  0  0  0  0
    6.9435   -0.1342   -0.0346 H   0  0  0  0  0  0  0  0  0  0  0  0
    7.3334    1.6048    1.7472 H   0  0  0  0  0  0  0  0  0  0  0  0
    6.9486    2.8786    0.5792 H   0  0  0  0  0  0  0  0  0  0  0  0
    8.3760    1.8566    0.3364 H   0  0  0  0  0  0  0  0  0  0  0  0
    4.4354    2.4113   -1.0305 H   0  0  0  0  0  0  0  0  0  0  0  0
    2.0866    2.3819   -0.2713 H   0  0  0  0  0  0  0  0  0  0  0  0
  1  2  1  0
  2  3  1  0
  3  4  1  0
  4  5  1  0
  5  6  1  0
  6  7  1  0
  7  8  1  0
  8  9  1  0
  2 10  2  0
 10 11  1  0
 11 12  2  0
 12 13  1  0
 13 14  2  0
 14 15  1  0
 15 16  1  0
 12 17  1  0
 17 18  2  3
 18 19  1  0
 19 20  2  0
 20 21  1  0
 21 22  2  0
 22 23  1  0
 23 24  1  0
 22 25  1  0
 25 26  2  0
 17  1  1  0
 26 19  1  0
  9  5  1  0
 15 11  1  0
  1 27  1  0
  3 28  1  0
  4 29  1  0
  4 30  1  0
  5 31  1  0
  6 32  1  0
  6 33  1  0
  7 34  1  0
  7 35  1  0
  8 36  1  0
  8 37  1  0
 13 38  1  0
 16 39  1  0
 16 40  1  0
 16 41  1  0
 20 42  1  0
 21 43  1  0
 23 44  1  0
 23 45  1  0
 24 46  1  0
 24 47  1  0
 24 48  1  0
 25 49  1  0
 26 50  1  0
M  END
>  <ScrubInfo>  (2) 
{"isomerGroup": 0, "isomerId": 1, "confId": 0, "nr_conformers:": 1, "nr_isomers:": 9}

$$$$
_i2
     RDKit          3D

 50 53  0  0  0  0  0  0  0  0999 V2000
    1.1192   -0.3538    0.0788 N   0  0  0  0  0  0  0  0  0  0  0  0
   -0.1337   -0.6257   -0.4418 C   0  0  0  0  0  0  0  0  0  0  0  0
   -0.9660    0.3967   -0.8555 N   0  0  0  0  0  0  0  0  0  0  0  0
   -2.3006    0.6228   -0.4474 C   0  0  0  0  0  0  0  0  0  0  0  0
   -3.0527    1.5790   -1.1442 C   0  0  0  0  0  0  0  0  0  0  0  0
   -4.3910    1.8227   -0.8207 C   0  0  0  0  0  0  0  0  0  0  0  0
   -5.0136    1.1036    0.2037 C   0  0  0  0  0  0  0  0  0  0  0  0
   -6.4513    1.3731    0.5670 C   0  0  0  0  0  0  0  0  0  0  0  0
   -6.5728    2.4547    1.6295 C   0  0  0  0  0  0  0  0  0  0  0  0
   -4.2707    0.1466    0.9021 C   0  0  0  0  0  0  0  0  0  0  0  0
   -2.9319   -0.0951    0.5745 C   0  0  0  0  0  0  0  0  0  0  0  0
   -0.4304   -1.9234   -0.5790 C   0  0  0  0  0  0  0  0  0  0  0  0
   -1.5191   -2.7398   -1.1270 C   0  0  0  0  0  0  0  0  0  0  0  0
   -1.2903   -4.0262   -1.0334 N   0  0  0  0  0  0  0  0  0  0  0  0
   -0.0525   -4.1381   -0.3762 N   0  0  0  0  0  0  0  0  0  0  0  0
    0.6474   -5.3997   -0.4161 C   0  0  0  0  0  0  0  0  0  0  0  0
    0.5583   -2.9196   -0.1253 C   0  0  0  0  0  0  0  0  0  0  0  0
    1.7155   -2.6507    0.3720 N   0  0  0  0  0  0  0  0  0  0  0  0
    2.0203   -1.3127    0.4934 C   0  0  0  0  0  0  0  0  0  0  0  0
    3.1747   -1.1055    1.0134 N   0  0  0  0  0  0  0  0  0  0  0  0
    3.6848    0.2469    1.2357 C   0  0  0  0  0  0  0  0  0  0  0  0
    4.3168    0.8313   -0.0431 C   0  0  0  0  0  0  0  0  0  0  0  0
    4.6462    2.3113    0.1058 C   0  0  0  0  0  0  0  0  0  0  0  0
    6.0454    2.2836    0.6678 C   0  0  0  0  0  0  0  0  0  0  0  0
    6.6460    1.0918   -0.0435 C   0  0  0  0  0  0  0  0  0  0  0  0
    5.5734    0.1825   -0.3174 O   0  0  0  0  0  0  0  0  0  0  0  0
    1.3294    0.6116    0.2581 H   0  0  0  0  0  0  0  0  0  0  0  0
   -0.4853    1.2734   -1.0316 H   0  0  0  0  0  0  0  0  0  0  0  0
   -2.6040    2.1387   -1.9616 H   0  0  0  0  0  0  0  0  0  0  0  0
   -4.9452    2.5736   -1.3796 H   0  0  0  0  0  0  0  0  0  0  0  0
   -6.9212    0.4485    0.9237 H   0  0  0  0  0  0  0  0  0  0  0  0
   -7.0090    1.6700   -0.3296 H   0  0  0  0  0  0  0  0  0  0  0  0
   -6.1431    3.4011    1.2840 H   0  0  0  0  0  0  0  0  0  0  0  0
   -6.0545    2.1669    2.5505 H   0  0  0  0  0  0  0  0  0  0  0  0
   -7.6256    2.6291    1.8731 H   0  0  0  0  0  0  0  0  0  0  0  0
   -4.7282   -0.4198    1.7110 H   0  0  0  0  0  0  0  0  0  0  0  0
   -2.3929   -0.8375    1.1567 H   0  0  0  0  0  0  0  0  0  0  0  0
   -2.4042   -2.2781   -1.5829 H   0  0  0  0  0  0  0  0  0  0  0  0
    1.3464   -5.4851    0.4220 H   0  0  0  0  0  0  0  0  0  0  0  0
    1.2095   -5.4945   -1.3504 H   0  0  0  0  0  0  0  0  0  0  0  0
   -0.0569   -6.2352   -0.3491 H   0  0  0  0  0  0  0  0  0  0  0  0
    4.4419    0.1766    2.0255 H   0  0  0  0  0  0  0  0  0  0  0  0
    2.8960    0.9020    1.6229 H   0  0  0  0  0  0  0  0  0  0  0  0
    3.6545    0.6716   -0.9005 H   0  0  0  0  0  0  0  0  0  0  0  0
    3.9367    2.8662    0.7258 H   0  0  0  0  0  0  0  0  0  0  0  0
    4.6664    2.7823   -0.8849 H   0  0  0  0  0  0  0  0  0  0  0  0
    6.6052    3.2070    0.4975 H   0  0  0  0  0  0  0  0  0  0  0  0
    6.0128    2.1006    1.7480 H   0  0  0  0  0  0  0  0  0  0  0  0
    7.0869    1.3849   -1.0022 H   0  0  0  0  0  0  0  0  0  0  0  0
    7.4128    0.5897    0.5529 H   0  0  0  0  0  0  0  0  0  0  0  0
  1  2  1  0
  2  3  1  0
  3  4  1  0
  4  5  2  0
  5  6  1  0
  6  7  2  0
  7  8  1  0
  8  9  1  0
  7 10  1  0
 10 11  2  0
  2 12  2  0
 12 13  1  0
 13 14  2  0
 14 15  1  0
 15 16  1  0
 15 17  1  0
 17 18  2  0
 18 19  1  0
 19 20  2  3
 20 21  1  0
 21 22  1  0
 22 23  1  0
 23 24  1  0
 24 25  1  0
 25 26  1  0
 19  1  1  0
 26 22  1  0
 11  4  1  0
 17 12  1  0
  1 27  1  0
  3 28  1  0
  5 29  1  0
  6 30  1  0
  8 31  1  0
  8 32  1  0
  9 33  1  0
  9 34  1  0
  9 35  1  0
 10 36  1  0
 11 37  1  0
 13 38  1  0
 16 39  1  0
 16 40  1  0
 16 41  1  0
 21 42  1  0
 21 43  1  0
 22 44  1  0
 23 45  1  0
 23 46  1  0
 24 47  1  0
 24 48  1  0
 25 49  1  0
 25 50  1  0
M  END
>  <ScrubInfo>  (3) 
{"isomerGroup": 0, "isomerId": 2, "confId": 0, "nr_conformers:": 1, "nr_isomers:": 9}

$$$$
_i3
     RDKit          3D

 50 53  0  0  0  0  0  0  0  0999 V2000
    1.8194   -1.3585   -0.2910 N   0  0  0  0  0  0  0  0  0  0  0  0
    1.1277   -0.2245   -0.6704 C   0  0  0  0  0  0  0  0  0  0  0  0
    1.6235    0.8147   -1.2437 N   0  0  0  0  0  0  0  0  0  0  0  0
    3.0332    0.8508   -1.6413 C   0  0  0  0  0  0  0  0  0  0  0  0
    3.9771    0.9505   -0.4397 C   0  0  0  0  0  0  0  0  0  0  0  0
    5.3175    1.5781   -0.7847 C   0  0  0  0  0  0  0  0  0  0  0  0
    6.1971    1.0307    0.3102 C   0  0  0  0  0  0  0  0  0  0  0  0
    5.6796   -0.3841    0.4540 C   0  0  0  0  0  0  0  0  0  0  0  0
    4.2983   -0.3773    0.0533 O   0  0  0  0  0  0  0  0  0  0  0  0
   -0.2358   -0.1151   -0.4486 N   0  0  0  0  0  0  0  0  0  0  0  0
   -0.8960   -1.0606    0.1531 C   0  0  0  0  0  0  0  0  0  0  0  0
   -2.2396   -1.1085    0.4408 N   0  0  0  0  0  0  0  0  0  0  0  0
   -3.2463   -0.1652    0.1551 C   0  0  0  0  0  0  0  0  0  0  0  0
   -4.5629   -0.4546    0.5545 C   0  0  0  0  0  0  0  0  0  0  0  0
   -5.6152    0.4354    0.3107 C   0  0  0  0  0  0  0  0  0  0  0  0
   -5.3792    1.6452   -0.3453 C   0  0  0  0  0  0  0  0  0  0  0  0
   -6.5018    2.6176   -0.5969 C   0  0  0  0  0  0  0  0  0  0  0  0
   -6.6730    3.5949    0.5560 C   0  0  0  0  0  0  0  0  0  0  0  0
   -4.0731    1.9486   -0.7384 C   0  0  0  0  0  0  0  0  0  0  0  0
   -3.0239    1.0535   -0.4912 C   0  0  0  0  0  0  0  0  0  0  0  0
   -0.1850   -2.2417    0.6118 C   0  0  0  0  0  0  0  0  0  0  0  0
   -0.4659   -3.4265    1.3144 C   0  0  0  0  0  0  0  0  0  0  0  0
    0.6239   -4.1883    1.4986 N   0  0  0  0  0  0  0  0  0  0  0  0
    1.6160   -3.4798    0.9042 N   0  0  0  0  0  0  0  0  0  0  0  0
    2.9620   -3.9931    0.9151 C   0  0  0  0  0  0  0  0  0  0  0  0
    1.1565   -2.3234    0.3633 C   0  0  0  0  0  0  0  0  0  0  0  0
    2.8353   -1.2831   -0.2962 H   0  0  0  0  0  0  0  0  0  0  0  0
    3.2730   -0.0178   -2.2668 H   0  0  0  0  0  0  0  0  0  0  0  0
    3.1526    1.7402   -2.2708 H   0  0  0  0  0  0  0  0  0  0  0  0
    3.5052    1.4979    0.3861 H   0  0  0  0  0  0  0  0  0  0  0  0
    5.2820    2.6708   -0.8063 H   0  0  0  0  0  0  0  0  0  0  0  0
    5.6775    1.2235   -1.7583 H   0  0  0  0  0  0  0  0  0  0  0  0
    6.0264    1.5877    1.2392 H   0  0  0  0  0  0  0  0  0  0  0  0
    7.2649    1.0726    0.0801 H   0  0  0  0  0  0  0  0  0  0  0  0
    6.2120   -1.0713   -0.2118 H   0  0  0  0  0  0  0  0  0  0  0  0
    5.7617   -0.7584    1.4784 H   0  0  0  0  0  0  0  0  0  0  0  0
   -2.5931   -1.9392    0.8904 H   0  0  0  0  0  0  0  0  0  0  0  0
   -4.7906   -1.3856    1.0676 H   0  0  0  0  0  0  0  0  0  0  0  0
   -6.6189    0.1756    0.6387 H   0  0  0  0  0  0  0  0  0  0  0  0
   -7.4369    2.0675   -0.7583 H   0  0  0  0  0  0  0  0  0  0  0  0
   -6.3109    3.1694   -1.5254 H   0  0  0  0  0  0  0  0  0  0  0  0
   -6.9015    3.0711    1.4903 H   0  0  0  0  0  0  0  0  0  0  0  0
   -7.4940    4.2876    0.3460 H   0  0  0  0  0  0  0  0  0  0  0  0
   -5.7638    4.1846    0.7153 H   0  0  0  0  0  0  0  0  0  0  0  0
   -3.8526    2.8874   -1.2421 H   0  0  0  0  0  0  0  0  0  0  0  0
   -2.0307    1.3450   -0.8212 H   0  0  0  0  0  0  0  0  0  0  0  0
   -1.4067   -3.7790    1.7146 H   0  0  0  0  0  0  0  0  0  0  0  0
    3.5569   -3.4869    0.1516 H   0  0  0  0  0  0  0  0  0  0  0  0
    2.9312   -5.0647    0.7011 H   0  0  0  0  0  0  0  0  0  0  0  0
    3.3867   -3.8136    1.9056 H   0  0  0  0  0  0  0  0  0  0  0  0
  1  2  1  0
  2  3  2  3
  3  4  1  0
  4  5  1  0
  5  6  1  0
  6  7  1  0
  7  8  1  0
  8  9  1  0
  2 10  1  0
 10 11  2  0
 11 12  1  0
 12 13  1  0
 13 14  2  0
 14 15  1  0
 15 16  2  0
 16 17  1  0
 17 18  1  0
 16 19  1  0
 19 20  2  0
 11 21  1  0
 21 22  1  0
 22 23  2  0
 23 24  1  0
 24 25  1  0
 24 26  1  0
 26  1  1  0
  9  5  1  0
 20 13  1  0
 26 21  2  0
  1 27  1  0
  4 28  1  0
  4 29  1  0
  5 30  1  0
  6 31  1  0
  6 32  1  0
  7 33  1  0
  7 34  1  0
  8 35  1  0
  8 36  1  0
 12 37  1  0
 14 38  1  0
 15 39  1  0
 17 40  1  0
 17 41  1  0
 18 42  1  0
 18 43  1  0
 18 44  1  0
 19 45  1  0
 20 46  1  0
 22 47  1  0
 25 48  1  0
 25 49  1  0
 25 50  1  0
M  END
>  <ScrubInfo>  (4) 
{"isomerGroup": 0, "isomerId": 3, "confId": 0, "nr_conformers:": 1, "nr_isomers:": 9}

$$$$
_i4
     RDKit          3D

 50 53  0  0  0  0  0  0  0  0999 V2000
    1.5544   -1.3395   -0.7444 N   0  0  0  0  0  0  0  0  0  0  0  0
    1.7950   -0.1858   -0.0408 C   0  0  0  0  0  0  0  0  0  0  0  0
    3.1144    0.1141    0.1384 N   0  0  0  0  0  0  0  0  0  0  0  0
    4.0327    0.2301   -0.9955 C   0  0  0  0  0  0  0  0  0  0  0  0
    5.4086    0.7212   -0.5279 C   0  0  0  0  0  0  0  0  0  0  0  0
    6.1417   -0.2292    0.4072 C   0  0  0  0  0  0  0  0  0  0  0  0
    7.0430    0.7204    1.1566 C   0  0  0  0  0  0  0  0  0  0  0  0
    6.1517    1.9324    1.3241 C   0  0  0  0  0  0  0  0  0  0  0  0
    5.2848    1.9727    0.1802 O   0  0  0  0  0  0  0  0  0  0  0  0
    0.8846    0.5959    0.4637 N   0  0  0  0  0  0  0  0  0  0  0  0
   -0.4620    0.2956    0.2908 C   0  0  0  0  0  0  0  0  0  0  0  0
   -1.3007    1.1538    0.7780 N   0  0  0  0  0  0  0  0  0  0  0  0
   -2.6815    0.9913    0.6780 C   0  0  0  0  0  0  0  0  0  0  0  0
   -3.3939    0.3761    1.7094 C   0  0  0  0  0  0  0  0  0  0  0  0
   -4.7810    0.2322    1.6246 C   0  0  0  0  0  0  0  0  0  0  0  0
   -5.4766    0.7160    0.5090 C   0  0  0  0  0  0  0  0  0  0  0  0
   -6.9752    0.5787    0.4239 C   0  0  0  0  0  0  0  0  0  0  0  0
   -7.6892    1.7672    1.0492 C   0  0  0  0  0  0  0  0  0  0  0  0
   -4.7637    1.3648   -0.5076 C   0  0  0  0  0  0  0  0  0  0  0  0
   -3.3766    1.5064   -0.4183 C   0  0  0  0  0  0  0  0  0  0  0  0
   -0.7661   -0.9427   -0.4098 C   0  0  0  0  0  0  0  0  0  0  0  0
   -1.9061   -1.6842   -0.7708 C   0  0  0  0  0  0  0  0  0  0  0  0
   -1.6057   -2.8214   -1.4200 N   0  0  0  0  0  0  0  0  0  0  0  0
   -0.2554   -2.8100   -1.4776 N   0  0  0  0  0  0  0  0  0  0  0  0
    0.4265   -3.9024   -2.1230 C   0  0  0  0  0  0  0  0  0  0  0  0
    0.2696   -1.7040   -0.8910 C   0  0  0  0  0  0  0  0  0  0  0  0
    2.3376   -1.9621   -0.8821 H   0  0  0  0  0  0  0  0  0  0  0  0
    3.1683    0.9781    0.6853 H   0  0  0  0  0  0  0  0  0  0  0  0
    3.6166    0.9566   -1.7034 H   0  0  0  0  0  0  0  0  0  0  0  0
    4.1384   -0.7317   -1.5082 H   0  0  0  0  0  0  0  0  0  0  0  0
    6.0317    0.9184   -1.4093 H   0  0  0  0  0  0  0  0  0  0  0  0
    5.4563   -0.7136    1.1120 H   0  0  0  0  0  0  0  0  0  0  0  0
    6.6866   -1.0116   -0.1285 H   0  0  0  0  0  0  0  0  0  0  0  0
    7.4070    0.3235    2.1078 H   0  0  0  0  0  0  0  0  0  0  0  0
    7.9103    0.9762    0.5364 H   0  0  0  0  0  0  0  0  0  0  0  0
    6.7182    2.8654    1.3902 H   0  0  0  0  0  0  0  0  0  0  0  0
    5.5219    1.8411    2.2154 H   0  0  0  0  0  0  0  0  0  0  0  0
   -2.8629    0.0104    2.5841 H   0  0  0  0  0  0  0  0  0  0  0  0
   -5.3146   -0.2526    2.4389 H   0  0  0  0  0  0  0  0  0  0  0  0
   -7.2894   -0.3467    0.9220 H   0  0  0  0  0  0  0  0  0  0  0  0
   -7.2768    0.4752   -0.6256 H   0  0  0  0  0  0  0  0  0  0  0  0
   -8.7737    1.6401    0.9729 H   0  0  0  0  0  0  0  0  0  0  0  0
   -7.4335    1.8716    2.1091 H   0  0  0  0  0  0  0  0  0  0  0  0
   -7.4208    2.7020    0.5455 H   0  0  0  0  0  0  0  0  0  0  0  0
   -5.2837    1.7714   -1.3719 H   0  0  0  0  0  0  0  0  0  0  0  0
   -2.8327    2.0232   -1.2042 H   0  0  0  0  0  0  0  0  0  0  0  0
   -2.9504   -1.4663   -0.5929 H   0  0  0  0  0  0  0  0  0  0  0  0
    1.4896   -3.6726   -2.2207 H   0  0  0  0  0  0  0  0  0  0  0  0
   -0.0093   -4.0473   -3.1149 H   0  0  0  0  0  0  0  0  0  0  0  0
    0.2922   -4.7984   -1.5119 H   0  0  0  0  0  0  0  0  0  0  0  0
  1  2  1  0
  2  3  1  0
  3  4  1  0
  4  5  1  0
  5  6  1  0
  6  7  1  0
  7  8  1  0
  8  9  1  0
  2 10  2  0
 10 11  1  0
 11 12  2  3
 12 13  1  0
 13 14  2  0
 14 15  1  0
 15 16  2  0
 16 17  1  0
 17 18  1  0
 16 19  1  0
 19 20  2  0
 11 21  1  0
 21 22  1  0
 22 23  2  0
 23 24  1  0
 24 25  1  0
 24 26  1  0
 26  1  1  0
  9  5  1  0
 20 13  1  0
 26 21  2  0
  1 27  1  0
  3 28  1  0
  4 29  1  0
  4 30  1  0
  5 31  1  0
  6 32  1  0
  6 33  1  0
  7 34  1  0
  7 35  1  0
  8 36  1  0
  8 37  1  0
 14 38  1  0
 15 39  1  0
 17 40  1  0
 17 41  1  0
 18 42  1  0
 18 43  1  0
 18 44  1  0
 19 45  1  0
 20 46  1  0
 22 47  1  0
 25 48  1  0
 25 49  1  0
 25 50  1  0
M  END
>  <ScrubInfo>  (5) 
{"isomerGroup": 0, "isomerId": 4, "confId": 0, "nr_conformers:": 1, "nr_isomers:": 9}

$$$$
_i5
     RDKit          3D

 50 53  0  0  0  0  0  0  0  0999 V2000
    1.0411    1.9954    2.0523 N   0  0  0  0  0  0  0  0  0  0  0  0
    1.5372    0.9245    1.3155 C   0  0  0  0  0  0  0  0  0  0  0  0
    0.5912    0.0528    0.9328 C   0  0  0  0  0  0  0  0  0  0  0  0
    0.4701   -1.1779    0.1613 C   0  0  0  0  0  0  0  0  0  0  0  0
    1.3731   -1.9101   -0.4019 N   0  0  0  0  0  0  0  0  0  0  0  0
    2.7235   -1.5674   -0.3148 C   0  0  0  0  0  0  0  0  0  0  0  0
    3.5059   -2.0405    0.7406 C   0  0  0  0  0  0  0  0  0  0  0  0
    4.8596   -1.7052    0.8246 C   0  0  0  0  0  0  0  0  0  0  0  0
    5.4540   -0.9069   -0.1614 C   0  0  0  0  0  0  0  0  0  0  0  0
    6.9110   -0.5327   -0.0665 C   0  0  0  0  0  0  0  0  0  0  0  0
    7.1109    0.7624    0.7058 C   0  0  0  0  0  0  0  0  0  0  0  0
    4.6715   -0.4511   -1.2303 C   0  0  0  0  0  0  0  0  0  0  0  0
    3.3183   -0.7893   -1.3099 C   0  0  0  0  0  0  0  0  0  0  0  0
   -0.8200   -1.6136    0.0141 N   0  0  0  0  0  0  0  0  0  0  0  0
   -1.8424   -1.0210    0.5552 C   0  0  0  0  0  0  0  0  0  0  0  0
   -3.0631   -1.5818    0.3132 N   0  0  0  0  0  0  0  0  0  0  0  0
   -4.3046   -0.8293    0.3739 C   0  0  0  0  0  0  0  0  0  0  0  0
   -4.4685    0.0565   -0.8738 C   0  0  0  0  0  0  0  0  0  0  0  0
   -5.7113    0.9345   -0.8068 C   0  0  0  0  0  0  0  0  0  0  0  0
   -6.7563    0.0921   -1.4944 C   0  0  0  0  0  0  0  0  0  0  0  0
   -5.9461   -0.5866   -2.5746 C   0  0  0  0  0  0  0  0  0  0  0  0
   -4.6361   -0.7948   -2.0320 O   0  0  0  0  0  0  0  0  0  0  0  0
   -1.7869    0.1066    1.3316 N   0  0  0  0  0  0  0  0  0  0  0  0
   -0.6266    0.6238    1.5373 C   0  0  0  0  0  0  0  0  0  0  0  0
   -0.3019    1.7492    2.2969 N   0  0  0  0  0  0  0  0  0  0  0  0
   -1.2166    2.8684    2.4050 C   0  0  0  0  0  0  0  0  0  0  0  0
    1.6141    2.2191    2.8693 H   0  0  0  0  0  0  0  0  0  0  0  0
    2.5995    0.8854    1.1234 H   0  0  0  0  0  0  0  0  0  0  0  0
    3.0558   -2.6768    1.4979 H   0  0  0  0  0  0  0  0  0  0  0  0
    5.4479   -2.0803    1.6588 H   0  0  0  0  0  0  0  0  0  0  0  0
    7.4698   -1.3431    0.4173 H   0  0  0  0  0  0  0  0  0  0  0  0
    7.3331   -0.4327   -1.0739 H   0  0  0  0  0  0  0  0  0  0  0  0
    6.5919    1.5972    0.2227 H   0  0  0  0  0  0  0  0  0  0  0  0
    6.7300    0.6775    1.7292 H   0  0  0  0  0  0  0  0  0  0  0  0
    8.1757    1.0104    0.7596 H   0  0  0  0  0  0  0  0  0  0  0  0
    5.1114    0.1622   -2.0134 H   0  0  0  0  0  0  0  0  0  0  0  0
    2.7214   -0.4481   -2.1515 H   0  0  0  0  0  0  0  0  0  0  0  0
   -3.0156   -2.2224   -0.4743 H   0  0  0  0  0  0  0  0  0  0  0  0
   -5.1237   -1.5554    0.4262 H   0  0  0  0  0  0  0  0  0  0  0  0
   -4.3465   -0.2281    1.2890 H   0  0  0  0  0  0  0  0  0  0  0  0
   -3.5733    0.6695   -1.0265 H   0  0  0  0  0  0  0  0  0  0  0  0
   -5.9896    1.2349    0.2072 H   0  0  0  0  0  0  0  0  0  0  0  0
   -5.5438    1.8479   -1.3910 H   0  0  0  0  0  0  0  0  0  0  0  0
   -7.5949    0.6707   -1.8905 H   0  0  0  0  0  0  0  0  0  0  0  0
   -7.1531   -0.6538   -0.7962 H   0  0  0  0  0  0  0  0  0  0  0  0
   -6.3739   -1.5440   -2.8842 H   0  0  0  0  0  0  0  0  0  0  0  0
   -5.8457    0.0541   -3.4573 H   0  0  0  0  0  0  0  0  0  0  0  0
   -0.8292    3.6105    3.1106 H   0  0  0  0  0  0  0  0  0  0  0  0
   -1.3561    3.3525    1.4327 H   0  0  0  0  0  0  0  0  0  0  0  0
   -2.1921    2.5350    2.7734 H   0  0  0  0  0  0  0  0  0  0  0  0
  1  2  1  0
  2  3  2  0
  3  4  1  0
  4  5  2  3
  5  6  1  0
  6  7  2  0
  7  8  1  0
  8  9  2  0
  9 10  1  0
 10 11  1  0
  9 12  1  0
 12 13  2  0
  4 14  1  0
 14 15  2  0
 15 16  1  0
 16 17  1  0
 17 18  1  0
 18 19  1  0
 19 20  1  0
 20 21  1  0
 21 22  1  0
 15 23  1  0
 23 24  2  0
 24 25  1  0
 25 26  1  0
 25  1  1  0
 24  3  1  0
 13  6  1  0
 22 18  1  0
  1 27  1  0
  2 28  1  0
  7 29  1  0
  8 30  1  0
 10 31  1  0
 10 32  1  0
 11 33  1  0
 11 34  1  0
 11 35  1  0
 12 36  1  0
 13 37  1  0
 16 38  1  0
 17 39  1  0
 17 40  1  0
 18 41  1  0
 19 42  1  0
 19 43  1  0
 20 44  1  0
 20 45  1  0
 21 46  1  0
 21 47  1  0
 26 48  1  0
 26 49  1  0
 26 50  1  0
M  END
>  <ScrubInfo>  (6) 
{"isomerGroup": 0, "isomerId": 5, "confId": 0, "nr_conformers:": 1, "nr_isomers:": 9}

$$$$
_i6
     RDKit          3D

 50 53  0  0  0  0  0  0  0  0999 V2000
   -0.9006   -0.9983    4.0095 N   0  0  0  0  0  0  0  0  0  0  0  0
   -1.1748   -0.2742    2.8544 C   0  0  0  0  0  0  0  0  0  0  0  0
   -0.2152   -0.3891    1.9267 C   0  0  0  0  0  0  0  0  0  0  0  0
    0.0879    0.1120    0.5878 C   0  0  0  0  0  0  0  0  0  0  0  0
   -0.7592    0.9270   -0.1334 N   0  0  0  0  0  0  0  0  0  0  0  0
   -2.1347    0.6639   -0.3296 C   0  0  0  0  0  0  0  0  0  0  0  0
   -2.9790    1.7348   -0.6452 C   0  0  0  0  0  0  0  0  0  0  0  0
   -4.3384    1.5273   -0.8947 C   0  0  0  0  0  0  0  0  0  0  0  0
   -4.8778    0.2373   -0.8502 C   0  0  0  0  0  0  0  0  0  0  0  0
   -6.3394    0.0075   -1.1387 C   0  0  0  0  0  0  0  0  0  0  0  0
   -6.5939   -0.2282   -2.6196 C   0  0  0  0  0  0  0  0  0  0  0  0
   -4.0298   -0.8403   -0.5720 C   0  0  0  0  0  0  0  0  0  0  0  0
   -2.6703   -0.6291   -0.3218 C   0  0  0  0  0  0  0  0  0  0  0  0
    1.2401   -0.1965    0.0569 N   0  0  0  0  0  0  0  0  0  0  0  0
    2.1108   -0.9972    0.7727 C   0  0  0  0  0  0  0  0  0  0  0  0
    3.2798   -1.2402    0.2983 N   0  0  0  0  0  0  0  0  0  0  0  0
    3.6614   -0.6632   -0.9958 C   0  0  0  0  0  0  0  0  0  0  0  0
    4.1321    0.7969   -0.8462 C   0  0  0  0  0  0  0  0  0  0  0  0
    4.2688    1.4957   -2.1932 C   0  0  0  0  0  0  0  0  0  0  0  0
    5.6872    1.1737   -2.5905 C   0  0  0  0  0  0  0  0  0  0  0  0
    6.4020    1.2147   -1.2586 C   0  0  0  0  0  0  0  0  0  0  0  0
    5.4512    0.8305   -0.2585 O   0  0  0  0  0  0  0  0  0  0  0  0
    1.8685   -1.5989    1.9846 N   0  0  0  0  0  0  0  0  0  0  0  0
    0.7503   -1.3140    2.5533 C   0  0  0  0  0  0  0  0  0  0  0  0
    0.2456   -1.7538    3.7780 N   0  0  0  0  0  0  0  0  0  0  0  0
    1.1399   -2.0387    4.8849 C   0  0  0  0  0  0  0  0  0  0  0  0
   -1.7088   -1.5069    4.3746 H   0  0  0  0  0  0  0  0  0  0  0  0
   -2.0936    0.2916    2.7904 H   0  0  0  0  0  0  0  0  0  0  0  0
   -0.3359    1.1769   -1.0245 H   0  0  0  0  0  0  0  0  0  0  0  0
   -2.5827    2.7470   -0.6849 H   0  0  0  0  0  0  0  0  0  0  0  0
   -4.9721    2.3803   -1.1280 H   0  0  0  0  0  0  0  0  0  0  0  0
   -6.9230    0.8702   -0.7948 H   0  0  0  0  0  0  0  0  0  0  0  0
   -6.6987   -0.8517   -0.5593 H   0  0  0  0  0  0  0  0  0  0  0  0
   -6.2771    0.6320   -3.2191 H   0  0  0  0  0  0  0  0  0  0  0  0
   -7.6613   -0.3917   -2.7987 H   0  0  0  0  0  0  0  0  0  0  0  0
   -6.0505   -1.1078   -2.9812 H   0  0  0  0  0  0  0  0  0  0  0  0
   -4.4195   -1.8562   -0.5599 H   0  0  0  0  0  0  0  0  0  0  0  0
   -2.0381   -1.4948   -0.1401 H   0  0  0  0  0  0  0  0  0  0  0  0
    2.8409   -0.7451   -1.7190 H   0  0  0  0  0  0  0  0  0  0  0  0
    4.4790   -1.2789   -1.3888 H   0  0  0  0  0  0  0  0  0  0  0  0
    3.4558    1.3578   -0.1931 H   0  0  0  0  0  0  0  0  0  0  0  0
    4.1721    2.5796   -2.0536 H   0  0  0  0  0  0  0  0  0  0  0  0
    3.5260    1.1866   -2.9338 H   0  0  0  0  0  0  0  0  0  0  0  0
    5.7386    0.1645   -3.0151 H   0  0  0  0  0  0  0  0  0  0  0  0
    6.1076    1.8705   -3.3204 H   0  0  0  0  0  0  0  0  0  0  0  0
    6.7408    2.2292   -1.0234 H   0  0  0  0  0  0  0  0  0  0  0  0
    7.2649    0.5438   -1.2248 H   0  0  0  0  0  0  0  0  0  0  0  0
    0.5790   -2.4502    5.7303 H   0  0  0  0  0  0  0  0  0  0  0  0
    1.8925   -2.7777    4.5919 H   0  0  0  0  0  0  0  0  0  0  0  0
    1.6514   -1.1289    5.2164 H   0  0  0  0  0  0  0  0  0  0  0  0
  1  2  1  0
  2  3  2  0
  3  4  1  0
  4  5  1  0
  5  6  1  0
  6  7  2  0
  7  8  1  0
  8  9  2  0
  9 10  1  0
 10 11  1  0
  9 12  1  0
 12 13  2  0
  4 14  2  0
 14 15  1  0
 15 16  2  3
 16 17  1  0
 17 18  1  0
 18 19  1  0
 19 20  1  0
 20 21  1  0
 21 22  1  0
 15 23  1  0
 23 24  2  0
 24 25  1  0
 25 26  1  0
 25  1  1  0
 24  3  1  0
 13  6  1  0
 22 18  1  0
  1 27  1  0
  2 28  1  0
  5 29  1  0
  7 30  1  0
  8 31  1  0
 10 32  1  0
 10 33  1  0
 11 34  1  0
 11 35  1  0
 11 36  1  0
 12 37  1  0
 13 38  1  0
 17 39  1  0
 17 40  1  0
 18 41  1  0
 19 42  1  0
 19 43  1  0
 20 44  1  0
 20 45  1  0
 21 46  1  0
 21 47  1  0
 26 48  1  0
 26 49  1  0
 26 50  1  0
M  END
>  <ScrubInfo>  (7) 
{"isomerGroup": 0, "isomerId": 6, "confId": 0, "nr_conformers:": 1, "nr_isomers:": 9}

$$$$
_i7
     RDKit          3D

 50 53  0  0  0  0  0  0  0  0999 V2000
    1.7224   -1.2095    0.2858 N   0  0  0  0  0  0  0  0  0  0  0  0
    0.9040   -0.2950   -0.3544 C   0  0  0  0  0  0  0  0  0  0  0  0
    1.2137    0.5164   -1.3087 N   0  0  0  0  0  0  0  0  0  0  0  0
    2.5588    0.4763   -1.9022 C   0  0  0  0  0  0  0  0  0  0  0  0
    3.6514    0.9679   -0.9351 C   0  0  0  0  0  0  0  0  0  0  0  0
    4.8552    1.5627   -1.6559 C   0  0  0  0  0  0  0  0  0  0  0  0
    5.7542    0.3690   -1.8511 C   0  0  0  0  0  0  0  0  0  0  0  0
    5.5294   -0.3939   -0.5674 C   0  0  0  0  0  0  0  0  0  0  0  0
    4.1580   -0.1794   -0.1977 O   0  0  0  0  0  0  0  0  0  0  0  0
   -0.3940   -0.2869    0.1223 N   0  0  0  0  0  0  0  0  0  0  0  0
   -0.9986   -1.0265    1.1215 C   0  0  0  0  0  0  0  0  0  0  0  0
   -2.2134   -1.0316    1.5622 N   0  0  0  0  0  0  0  0  0  0  0  0
   -3.1282   -0.1596    0.9601 C   0  0  0  0  0  0  0  0  0  0  0  0
   -3.8765   -0.5737   -0.1431 C   0  0  0  0  0  0  0  0  0  0  0  0
   -4.7827    0.2984   -0.7512 C   0  0  0  0  0  0  0  0  0  0  0  0
   -4.9559    1.5978   -0.2573 C   0  0  0  0  0  0  0  0  0  0  0  0
   -5.9486    2.5335   -0.8988 C   0  0  0  0  0  0  0  0  0  0  0  0
   -7.3318    2.4023   -0.2800 C   0  0  0  0  0  0  0  0  0  0  0  0
   -4.2212    2.0019    0.8648 C   0  0  0  0  0  0  0  0  0  0  0  0
   -3.3162    1.1263    1.4696 C   0  0  0  0  0  0  0  0  0  0  0  0
   -0.0510   -1.9213    1.7421 C   0  0  0  0  0  0  0  0  0  0  0  0
   -0.0916   -2.8471    2.7953 C   0  0  0  0  0  0  0  0  0  0  0  0
    1.1008   -3.4257    3.0130 N   0  0  0  0  0  0  0  0  0  0  0  0
    1.9081   -2.8610    2.0810 N   0  0  0  0  0  0  0  0  0  0  0  0
    3.2987   -3.2333    2.0232 C   0  0  0  0  0  0  0  0  0  0  0  0
    1.2474   -1.9634    1.3010 C   0  0  0  0  0  0  0  0  0  0  0  0
    2.7202   -1.1387    0.0826 H   0  0  0  0  0  0  0  0  0  0  0  0
    2.7719   -0.5343   -2.2720 H   0  0  0  0  0  0  0  0  0  0  0  0
    2.5188    1.1346   -2.7772 H   0  0  0  0  0  0  0  0  0  0  0  0
    3.2370    1.6859   -0.2188 H   0  0  0  0  0  0  0  0  0  0  0  0
    5.3537    2.2838   -0.9958 H   0  0  0  0  0  0  0  0  0  0  0  0
    4.6095    2.0820   -2.5862 H   0  0  0  0  0  0  0  0  0  0  0  0
    6.8029    0.6311   -2.0132 H   0  0  0  0  0  0  0  0  0  0  0  0
    5.4095   -0.2221   -2.7074 H   0  0  0  0  0  0  0  0  0  0  0  0
    5.7165   -1.4658   -0.6745 H   0  0  0  0  0  0  0  0  0  0  0  0
    6.1580   -0.0072    0.2419 H   0  0  0  0  0  0  0  0  0  0  0  0
   -0.9867    0.3749   -0.3570 H   0  0  0  0  0  0  0  0  0  0  0  0
   -3.7550   -1.5829   -0.5274 H   0  0  0  0  0  0  0  0  0  0  0  0
   -5.3574   -0.0461   -1.6079 H   0  0  0  0  0  0  0  0  0  0  0  0
   -6.0033    2.3312   -1.9754 H   0  0  0  0  0  0  0  0  0  0  0  0
   -5.5958    3.5676   -0.8024 H   0  0  0  0  0  0  0  0  0  0  0  0
   -7.3121    2.6354    0.7901 H   0  0  0  0  0  0  0  0  0  0  0  0
   -8.0300    3.0921   -0.7645 H   0  0  0  0  0  0  0  0  0  0  0  0
   -7.7239    1.3861   -0.3951 H   0  0  0  0  0  0  0  0  0  0  0  0
   -4.3541    2.9982    1.2803 H   0  0  0  0  0  0  0  0  0  0  0  0
   -2.7569    1.4450    2.3452 H   0  0  0  0  0  0  0  0  0  0  0  0
   -0.9345   -3.1189    3.4176 H   0  0  0  0  0  0  0  0  0  0  0  0
    3.6523   -3.1556    0.9923 H   0  0  0  0  0  0  0  0  0  0  0  0
    3.8593   -2.5554    2.6711 H   0  0  0  0  0  0  0  0  0  0  0  0
    3.4079   -4.2653    2.3668 H   0  0  0  0  0  0  0  0  0  0  0  0
  1  2  1  0
  2  3  2  3
  3  4  1  0
  4  5  1  0
  5  6  1  0
  6  7  1  0
  7  8  1  0
  8  9  1  0
  2 10  1  0
 10 11  1  0
 11 12  2  3
 12 13  1  0
 13 14  2  0
 14 15  1  0
 15 16  2  0
 16 17  1  0
 17 18  1  0
 16 19  1  0
 19 20  2  0
 11 21  1  0
 21 22  1  0
 22 23  2  0
 23 24  1  0
 24 25  1  0
 24 26  1  0
 26  1  1  0
  9  5  1  0
 20 13  1  0
 26 21  2  0
  1 27  1  0
  4 28  1  0
  4 29  1  0
  5 30  1  0
  6 31  1  0
  6 32  1  0
  7 33  1  0
  7 34  1  0
  8 35  1  0
  8 36  1  0
 10 37  1  0
 14 38  1  0
 15 39  1  0
 17 40  1  0
 17 41  1  0
 18 42  1  0
 18 43  1  0
 18 44  1  0
 19 45  1  0
 20 46  1  0
 22 47  1  0
 25 48  1  0
 25 49  1  0
 25 50  1  0
M  END
>  <ScrubInfo>  (8) 
{"isomerGroup": 0, "isomerId": 7, "confId": 0, "nr_conformers:": 1, "nr_isomers:": 9}

$$$$
_i8
     RDKit          3D

 50 53  0  0  0  0  0  0  0  0999 V2000
   -0.7443   -0.9771    2.5770 N   0  0  0  0  0  0  0  0  0  0  0  0
   -1.3927   -0.5817    1.4124 C   0  0  0  0  0  0  0  0  0  0  0  0
   -0.5785   -0.4826    0.3521 C   0  0  0  0  0  0  0  0  0  0  0  0
   -0.6141   -0.1019   -1.0741 C   0  0  0  0  0  0  0  0  0  0  0  0
   -1.6275    0.2601   -1.8042 N   0  0  0  0  0  0  0  0  0  0  0  0
   -2.9129    0.3270   -1.2604 C   0  0  0  0  0  0  0  0  0  0  0  0
   -3.3870    1.5228   -0.7177 C   0  0  0  0  0  0  0  0  0  0  0  0
   -4.6778    1.5973   -0.1883 C   0  0  0  0  0  0  0  0  0  0  0  0
   -5.5169    0.4756   -0.2061 C   0  0  0  0  0  0  0  0  0  0  0  0
   -6.9184    0.5608    0.3426 C   0  0  0  0  0  0  0  0  0  0  0  0
   -7.9171    0.9938   -0.7197 C   0  0  0  0  0  0  0  0  0  0  0  0
   -5.0495   -0.7137   -0.7801 C   0  0  0  0  0  0  0  0  0  0  0  0
   -3.7578   -0.7835   -1.3080 C   0  0  0  0  0  0  0  0  0  0  0  0
    0.6254   -0.1537   -1.6509 N   0  0  0  0  0  0  0  0  0  0  0  0
    1.8044   -0.5088   -1.0607 C   0  0  0  0  0  0  0  0  0  0  0  0
    2.8837   -0.4598   -1.7681 N   0  0  0  0  0  0  0  0  0  0  0  0
    4.1552   -0.8412   -1.1340 C   0  0  0  0  0  0  0  0  0  0  0  0
    4.7438    0.3228   -0.3135 C   0  0  0  0  0  0  0  0  0  0  0  0
    5.9273   -0.1165    0.5392 C   0  0  0  0  0  0  0  0  0  0  0  0
    7.0978    0.0845   -0.3897 C   0  0  0  0  0  0  0  0  0  0  0  0
    6.6914    1.3337   -1.1381 C   0  0  0  0  0  0  0  0  0  0  0  0
    5.2604    1.3361   -1.2054 O   0  0  0  0  0  0  0  0  0  0  0  0
    1.8581   -0.9147    0.2567 N   0  0  0  0  0  0  0  0  0  0  0  0
    0.7453   -0.9192    0.9229 C   0  0  0  0  0  0  0  0  0  0  0  0
    0.5646   -1.3049    2.2539 N   0  0  0  0  0  0  0  0  0  0  0  0
    1.6070   -1.0928    3.2400 C   0  0  0  0  0  0  0  0  0  0  0  0
   -1.2659   -1.6741    3.1135 H   0  0  0  0  0  0  0  0  0  0  0  0
   -2.4555   -0.3939    1.4591 H   0  0  0  0  0  0  0  0  0  0  0  0
   -2.7473    2.4011   -0.7117 H   0  0  0  0  0  0  0  0  0  0  0  0
   -5.0266    2.5397    0.2281 H   0  0  0  0  0  0  0  0  0  0  0  0
   -6.9428    1.2647    1.1834 H   0  0  0  0  0  0  0  0  0  0  0  0
   -7.2129   -0.4125    0.7537 H   0  0  0  0  0  0  0  0  0  0  0  0
   -7.9395    0.2867   -1.5559 H   0  0  0  0  0  0  0  0  0  0  0  0
   -8.9239    1.0466   -0.2933 H   0  0  0  0  0  0  0  0  0  0  0  0
   -7.6666    1.9813   -1.1217 H   0  0  0  0  0  0  0  0  0  0  0  0
   -5.6915   -1.5902   -0.8307 H   0  0  0  0  0  0  0  0  0  0  0  0
   -3.4082   -1.7054   -1.7645 H   0  0  0  0  0  0  0  0  0  0  0  0
    0.6941    0.1259   -2.6181 H   0  0  0  0  0  0  0  0  0  0  0  0
    4.8432   -1.1109   -1.9439 H   0  0  0  0  0  0  0  0  0  0  0  0
    4.0344   -1.7419   -0.5200 H   0  0  0  0  0  0  0  0  0  0  0  0
    3.9736    0.7844    0.3128 H   0  0  0  0  0  0  0  0  0  0  0  0
    6.0295    0.5593    1.3975 H   0  0  0  0  0  0  0  0  0  0  0  0
    5.8448   -1.1362    0.9252 H   0  0  0  0  0  0  0  0  0  0  0  0
    8.0552    0.1907    0.1273 H   0  0  0  0  0  0  0  0  0  0  0  0
    7.1769   -0.7612   -1.0824 H   0  0  0  0  0  0  0  0  0  0  0  0
    7.1085    1.3724   -2.1482 H   0  0  0  0  0  0  0  0  0  0  0  0
    7.0010    2.2355   -0.5990 H   0  0  0  0  0  0  0  0  0  0  0  0
    1.7873   -0.0234    3.3916 H   0  0  0  0  0  0  0  0  0  0  0  0
    2.5421   -1.5640    2.9206 H   0  0  0  0  0  0  0  0  0  0  0  0
    1.3203   -1.5368    4.1989 H   0  0  0  0  0  0  0  0  0  0  0  0
  1  2  1  0
  2  3  2  0
  3  4  1  0
  4  5  2  3
  5  6  1  0
  6  7  2  0
  7  8  1  0
  8  9  2  0
  9 10  1  0
 10 11  1  0
  9 12  1  0
 12 13  2  0
  4 14  1  0
 14 15  1  0
 15 16  2  3
 16 17  1  0
 17 18  1  0
 18 19  1  0
 19 20  1  0
 20 21  1  0
 21 22  1  0
 15 23  1  0
 23 24  2  0
 24 25  1  0
 25 26  1  0
 25  1  1  0
 24  3  1  0
 13  6  1  0
 22 18  1  0
  1 27  1  0
  2 28  1  0
  7 29  1  0
  8 30  1  0
 10 31  1  0
 10 32  1  0
 11 33  1  0
 11 34  1  0
 11 35  1  0
 12 36  1  0
 13 37  1  0
 14 38  1  0
 17 39  1  0
 17 40  1  0
 18 41  1  0
 19 42  1  0
 19 43  1  0
 20 44  1  0
 20 45  1  0
 21 46  1  0
 21 47  1  0
 26 48  1  0
 26 49  1  0
 26 50  1  0
M  END
>  <ScrubInfo>  (9) 
{"isomerGroup": 0, "isomerId": 8, "confId": 0, "nr_conformers:": 1, "nr_isomers:": 9}

$$$$
