REMARK SMILES CCc1ccc(Nc2nc(NC[C@H]3CCCO3)nc3c2cnn3C)cc1
REMARK SMILES IDX 8 1 9 2 10 3 18 4 19 5 20 6 21 7 22 8 23 9 24 10 7 11 6 13
REMARK SMILES IDX 3 14 4 15 26 16 5 17 25 18 2 19 1 20 11 21 12 23 13 24 14 25
REMARK SMILES IDX 17 26 15 27 16 28
REMARK H PARENT 7 12 11 22
ROOT
ATOM      1  C   UNL     1      -0.458  -0.334   0.184  1.00  0.00     0.147 A 
ATOM      2  N   UNL     1       0.710  -0.622  -0.444  1.00  0.00    -0.195 NA
ATOM      3  C   UNL     1       1.713   0.275  -0.450  1.00  0.00     0.226 A 
ATOM      4  N   UNL     1       1.695   1.478   0.144  1.00  0.00    -0.193 NA
ATOM      5  C   UNL     1       0.540   1.725   0.780  1.00  0.00     0.165 A 
ATOM      6  C   UNL     1      -0.556   0.889   0.850  1.00  0.00     0.082 A 
ATOM      7  C   UNL     1      -1.483   1.590   1.648  1.00  0.00     0.149 A 
ATOM      8  N   UNL     1      -1.032   2.789   2.038  1.00  0.00    -0.179 NA
ATOM      9  N   UNL     1       0.204   2.845   1.490  1.00  0.00    -0.250 N 
ATOM     10  C   UNL     1       1.019   4.016   1.698  1.00  0.00     0.176 C 
ENDROOT
BRANCH   1  11
ATOM     11  N   UNL     1      -1.455  -1.322   0.158  1.00  0.00    -0.339 N 
ATOM     12  H   UNL     1      -1.094  -2.084  -0.412  1.00  0.00     0.168 HD
BRANCH  11  13
ATOM     13  C   UNL     1      -2.837  -1.147  -0.069  1.00  0.00     0.040 A 
ATOM     14  C   UNL     1      -5.614  -0.952  -0.556  1.00  0.00    -0.048 A 
ATOM     15  C   UNL     1      -4.740   0.049  -0.996  1.00  0.00     0.006 A 
ATOM     16  C   UNL     1      -5.087  -2.057   0.121  1.00  0.00     0.006 A 
ATOM     17  C   UNL     1      -3.365  -0.055  -0.764  1.00  0.00     0.026 A 
ATOM     18  C   UNL     1      -3.712  -2.156   0.350  1.00  0.00     0.026 A 
BRANCH  14  19
ATOM     19  C   UNL     1      -7.098  -0.831  -0.789  1.00  0.00     0.032 C 
ATOM     20  C   UNL     1      -7.791  -0.103   0.352  1.00  0.00     0.009 C 
ENDBRANCH  14  19
ENDBRANCH  11  13
ENDBRANCH   1  11
BRANCH   3  21
ATOM     21  N   UNL     1       2.845  -0.124  -1.150  1.00  0.00    -0.351 N 
ATOM     22  H   UNL     1       2.772  -1.134  -1.259  1.00  0.00     0.163 HD
BRANCH  21  23
ATOM     23  C   UNL     1       4.105   0.292  -0.546  1.00  0.00     0.148 C 
BRANCH  23  24
ATOM     24  C   UNL     1       5.270  -0.423  -1.257  1.00  0.00     0.137 C 
ATOM     25  C   UNL     1       6.632   0.002  -0.726  1.00  0.00     0.036 C 
ATOM     26  O   UNL     1       5.163  -1.846  -1.013  1.00  0.00    -0.376 OA
ATOM     27  C   UNL     1       6.906  -1.020   0.349  1.00  0.00     0.031 C 
ATOM     28  C   UNL     1       6.297  -2.269  -0.245  1.00  0.00     0.160 C 
ENDBRANCH  23  24
ENDBRANCH  21  23
ENDBRANCH   3  21
TORSDOF 6
