REMARK SMILES COc1ccc(Nc2nc(NC[C@H]3CCCO3)nc(C)c2[N+](=O)[O-])cc1
REMARK SMILES IDX 8 1 9 2 10 3 18 4 19 5 20 6 21 7 7 8 6 10 3 11 4 12 26 13
REMARK SMILES IDX 5 14 25 15 2 16 1 17 22 18 23 19 24 20 11 21 12 23 13 24
REMARK SMILES IDX 14 25 17 26 15 27 16 28
REMARK H PARENT 7 9 11 22
ROOT
ATOM      1  C   UNL     1       0.669  -2.131  -0.776  1.00  0.00     0.215 A 
ATOM      2  N   UNL     1      -0.333  -1.374  -0.285  1.00  0.00    -0.188 NA
ATOM      3  C   UNL     1      -1.483  -1.958   0.068  1.00  0.00     0.225 A 
ATOM      4  N   UNL     1      -1.715  -3.270  -0.048  1.00  0.00    -0.211 NA
ATOM      5  C   UNL     1      -0.721  -4.049  -0.532  1.00  0.00     0.123 A 
ATOM      6  C   UNL     1      -1.043  -5.510  -0.640  1.00  0.00     0.075 C 
ATOM      7  C   UNL     1       0.496  -3.501  -0.896  1.00  0.00     0.332 A 
ENDROOT
BRANCH   1   8
ATOM      8  N   UNL     1       1.898  -1.515  -1.123  1.00  0.00    -0.334 N 
ATOM      9  H   UNL     1       2.233  -1.863  -2.022  1.00  0.00     0.168 HD
BRANCH   8  10
ATOM     10  C   UNL     1       2.337  -0.194  -0.884  1.00  0.00     0.040 A 
ATOM     11  C   UNL     1       3.382   2.398  -0.417  1.00  0.00     0.119 A 
ATOM     12  C   UNL     1       3.873   1.621  -1.462  1.00  0.00     0.048 A 
ATOM     13  C   UNL     1       2.388   1.870   0.406  1.00  0.00     0.048 A 
ATOM     14  C   UNL     1       3.361   0.335  -1.684  1.00  0.00     0.030 A 
ATOM     15  C   UNL     1       1.880   0.585   0.182  1.00  0.00     0.030 A 
BRANCH  11  16
ATOM     16  O   UNL     1       3.787   3.661  -0.090  1.00  0.00    -0.497 OA
ATOM     17  C   UNL     1       4.795   4.244  -0.906  1.00  0.00     0.278 C 
ENDBRANCH  11  16
ENDBRANCH   8  10
ENDBRANCH   1   8
BRANCH   7  18
ATOM     18  N   UNL     1       1.555  -4.319  -1.419  1.00  0.00     0.068 N 
ATOM     19  O   UNL     1       1.885  -5.321  -0.773  1.00  0.00    -0.258 OA
ATOM     20  O   UNL     1       2.062  -3.962  -2.494  1.00  0.00    -0.258 OA
ENDBRANCH   7  18
BRANCH   3  21
ATOM     21  N   UNL     1      -2.519  -1.208   0.601  1.00  0.00    -0.352 N 
ATOM     22  H   UNL     1      -3.349  -1.789   0.529  1.00  0.00     0.163 HD
BRANCH  21  23
ATOM     23  C   UNL     1      -2.653   0.127   0.030  1.00  0.00     0.148 C 
BRANCH  23  24
ATOM     24  C   UNL     1      -3.765   0.915   0.747  1.00  0.00     0.137 C 
ATOM     25  C   UNL     1      -3.392   1.337   2.163  1.00  0.00     0.036 C 
ATOM     26  O   UNL     1      -4.021   2.134   0.017  1.00  0.00    -0.376 OA
ATOM     27  C   UNL     1      -2.786   2.702   1.954  1.00  0.00     0.031 C 
ATOM     28  C   UNL     1      -3.633   3.251   0.829  1.00  0.00     0.160 C 
ENDBRANCH  23  24
ENDBRANCH  21  23
ENDBRANCH   3  21
TORSDOF 7
