_i0
     RDKit          3D

 47 49  0  0  0  0  0  0  0  0999 V2000
    4.7955    4.2438   -0.9058 C   0  0  0  0  0  0  0  0  0  0  0  0
    3.7874    3.6614   -0.0896 O   0  0  0  0  0  0  0  0  0  0  0  0
    3.3816    2.3979   -0.4168 C   0  0  0  0  0  0  0  0  0  0  0  0
    3.8730    1.6209   -1.4623 C   0  0  0  0  0  0  0  0  0  0  0  0
    3.3615    0.3345   -1.6837 C   0  0  0  0  0  0  0  0  0  0  0  0
    2.3366   -0.1944   -0.8838 C   0  0  0  0  0  0  0  0  0  0  0  0
    1.8979   -1.5151   -1.1235 N   0  0  0  0  0  0  0  0  0  0  0  0
    0.6689   -2.1308   -0.7763 C   0  0  0  0  0  0  0  0  0  0  0  0
   -0.3330   -1.3741   -0.2853 N   0  0  0  0  0  0  0  0  0  0  0  0
   -1.4833   -1.9578    0.0679 C   0  0  0  0  0  0  0  0  0  0  0  0
   -2.5195   -1.2080    0.6010 N   0  0  0  0  0  0  0  0  0  0  0  0
   -2.6531    0.1271    0.0301 C   0  0  0  0  0  0  0  0  0  0  0  0
   -3.7652    0.9153    0.7472 C   0  0  0  0  0  0  0  0  0  0  0  0
   -3.3916    1.3366    2.1632 C   0  0  0  0  0  0  0  0  0  0  0  0
   -2.7858    2.7018    1.9542 C   0  0  0  0  0  0  0  0  0  0  0  0
   -3.6334    3.2506    0.8293 C   0  0  0  0  0  0  0  0  0  0  0  0
   -4.0205    2.1337    0.0165 O   0  0  0  0  0  0  0  0  0  0  0  0
   -1.7146   -3.2699   -0.0475 N   0  0  0  0  0  0  0  0  0  0  0  0
   -0.7205   -4.0489   -0.5322 C   0  0  0  0  0  0  0  0  0  0  0  0
   -1.0428   -5.5104   -0.6402 C   0  0  0  0  0  0  0  0  0  0  0  0
    0.4958   -3.5012   -0.8965 C   0  0  0  0  0  0  0  0  0  0  0  0
    1.5551   -4.3187   -1.4195 N   0  0  0  0  0  4  0  0  0  0  0  0
    1.8851   -5.3208   -0.7732 O   0  0  0  0  0  0  0  0  0  0  0  0
    2.0623   -3.9622   -2.4942 O   0  0  0  0  0  1  0  0  0  0  0  0
    1.8797    0.5847    0.1825 C   0  0  0  0  0  0  0  0  0  0  0  0
    2.3876    1.8699    0.4058 C   0  0  0  0  0  0  0  0  0  0  0  0
    5.7274    3.6714   -0.8505 H   0  0  0  0  0  0  0  0  0  0  0  0
    4.9986    5.2479   -0.5210 H   0  0  0  0  0  0  0  0  0  0  0  0
    4.4550    4.3468   -1.9415 H   0  0  0  0  0  0  0  0  0  0  0  0
    4.6565    1.9777   -2.1220 H   0  0  0  0  0  0  0  0  0  0  0  0
    3.7771   -0.2513   -2.5004 H   0  0  0  0  0  0  0  0  0  0  0  0
    2.2330   -1.8635   -2.0225 H   0  0  0  0  0  0  0  0  0  0  0  0
   -3.3488   -1.7890    0.5292 H   0  0  0  0  0  0  0  0  0  0  0  0
   -1.7154    0.6935    0.0964 H   0  0  0  0  0  0  0  0  0  0  0  0
   -2.8996    0.0547   -1.0375 H   0  0  0  0  0  0  0  0  0  0  0  0
   -4.6879    0.3237    0.7526 H   0  0  0  0  0  0  0  0  0  0  0  0
   -4.3029    1.4363    2.7659 H   0  0  0  0  0  0  0  0  0  0  0  0
   -2.7255    0.6401    2.6795 H   0  0  0  0  0  0  0  0  0  0  0  0
   -1.7439    2.6039    1.6279 H   0  0  0  0  0  0  0  0  0  0  0  0
   -2.8049    3.3314    2.8476 H   0  0  0  0  0  0  0  0  0  0  0  0
   -4.5474    3.7162    1.2133 H   0  0  0  0  0  0  0  0  0  0  0  0
   -3.0990    3.9832    0.2183 H   0  0  0  0  0  0  0  0  0  0  0  0
   -0.8064   -5.8898   -1.6392 H   0  0  0  0  0  0  0  0  0  0  0  0
   -2.1114   -5.6825   -0.4706 H   0  0  0  0  0  0  0  0  0  0  0  0
   -0.4916   -6.0812    0.1129 H   0  0  0  0  0  0  0  0  0  0  0  0
    1.1265    0.2068    0.8678 H   0  0  0  0  0  0  0  0  0  0  0  0
    2.0061    2.4578    1.2368 H   0  0  0  0  0  0  0  0  0  0  0  0
  1  2  1  0
  2  3  1  0
  3  4  2  0
  4  5  1  0
  5  6  2  0
  6  7  1  0
  7  8  1  0
  8  9  2  0
  9 10  1  0
 10 11  1  0
 11 12  1  0
 12 13  1  0
 13 14  1  0
 14 15  1  0
 15 16  1  0
 16 17  1  0
 10 18  2  0
 18 19  1  0
 19 20  1  0
 19 21  2  0
 21 22  1  0
 22 23  2  0
 22 24  1  0
  6 25  1  0
 25 26  2  0
 26  3  1  0
 21  8  1  0
 17 13  1  0
  1 27  1  0
  1 28  1  0
  1 29  1  0
  4 30  1  0
  5 31  1  0
  7 32  1  0
 11 33  1  0
 12 34  1  0
 12 35  1  0
 13 36  1  0
 14 37  1  0
 14 38  1  0
 15 39  1  0
 15 40  1  0
 16 41  1  0
 16 42  1  0
 20 43  1  0
 20 44  1  0
 20 45  1  0
 25 46  1  0
 26 47  1  0
M  CHG  2  22   1  24  -1
M  END
>  <ScrubInfo>  (1) 
{"isomerGroup": 0, "isomerId": 0, "confId": 0, "nr_conformers:": 1, "nr_isomers:": 6}

$$$$
_i1
     RDKit          3D

 47 49  0  0  0  0  0  0  0  0999 V2000
    0.4900   -0.7114    0.4680 N   0  0  0  0  0  0  0  0  0  0  0  0
   -0.7835   -0.5825    0.9382 C   0  0  0  0  0  0  0  0  0  0  0  0
   -1.1490    0.7170    1.1423 N   0  0  0  0  0  0  0  0  0  0  0  0
   -2.5333    1.0623    1.4720 C   0  0  0  0  0  0  0  0  0  0  0  0
   -3.3897    1.0838    0.2021 C   0  0  0  0  0  0  0  0  0  0  0  0
   -4.8388    1.4576    0.4589 C   0  0  0  0  0  0  0  0  0  0  0  0
   -5.2489    2.0064   -0.8847 C   0  0  0  0  0  0  0  0  0  0  0  0
   -4.0022    2.7486   -1.3186 C   0  0  0  0  0  0  0  0  0  0  0  0
   -2.8813    2.0829   -0.7146 O   0  0  0  0  0  0  0  0  0  0  0  0
   -1.5589   -1.6029    1.1808 N   0  0  0  0  0  0  0  0  0  0  0  0
   -1.0477   -2.8790    0.9270 C   0  0  0  0  0  0  0  0  0  0  0  0
   -2.0464   -3.9733    1.2162 C   0  0  0  0  0  0  0  0  0  0  0  0
    0.2046   -3.0927    0.4705 C   0  0  0  0  0  0  0  0  0  0  0  0
    0.6762   -4.4145    0.2265 N   0  0  0  0  0  4  0  0  0  0  0  0
    1.1545   -5.0307    1.1889 O   0  0  0  0  0  0  0  0  0  0  0  0
    0.5203   -4.8660   -0.9166 O   0  0  0  0  0  1  0  0  0  0  0  0
    1.0902   -1.9299    0.2237 C   0  0  0  0  0  0  0  0  0  0  0  0
    2.3163   -2.1130   -0.1787 N   0  0  0  0  0  0  0  0  0  0  0  0
    3.1355   -1.0021   -0.4077 C   0  0  0  0  0  0  0  0  0  0  0  0
    3.9041   -0.4650    0.6246 C   0  0  0  0  0  0  0  0  0  0  0  0
    4.7076    0.6537    0.3924 C   0  0  0  0  0  0  0  0  0  0  0  0
    4.7654    1.2377   -0.8758 C   0  0  0  0  0  0  0  0  0  0  0  0
    5.5866    2.3268   -0.9661 O   0  0  0  0  0  0  0  0  0  0  0  0
    5.7507    2.9036   -2.2557 C   0  0  0  0  0  0  0  0  0  0  0  0
    4.0120    0.6892   -1.9141 C   0  0  0  0  0  0  0  0  0  0  0  0
    3.2049   -0.4297   -1.6790 C   0  0  0  0  0  0  0  0  0  0  0  0
    1.0666    0.1149    0.4345 H   0  0  0  0  0  0  0  0  0  0  0  0
   -0.7982    1.3624    0.4379 H   0  0  0  0  0  0  0  0  0  0  0  0
   -2.9450    0.3741    2.2186 H   0  0  0  0  0  0  0  0  0  0  0  0
   -2.5168    2.0618    1.9215 H   0  0  0  0  0  0  0  0  0  0  0  0
   -3.3362    0.1206   -0.3202 H   0  0  0  0  0  0  0  0  0  0  0  0
   -4.9139    2.2464    1.2171 H   0  0  0  0  0  0  0  0  0  0  0  0
   -5.4453    0.6081    0.7847 H   0  0  0  0  0  0  0  0  0  0  0  0
   -5.4523    1.1809   -1.5771 H   0  0  0  0  0  0  0  0  0  0  0  0
   -6.1345    2.6460   -0.8475 H   0  0  0  0  0  0  0  0  0  0  0  0
   -4.0092    3.7813   -0.9543 H   0  0  0  0  0  0  0  0  0  0  0  0
   -3.8796    2.7629   -2.4052 H   0  0  0  0  0  0  0  0  0  0  0  0
   -2.9530   -3.8163    0.6214 H   0  0  0  0  0  0  0  0  0  0  0  0
   -1.6823   -4.9792    0.9924 H   0  0  0  0  0  0  0  0  0  0  0  0
   -2.3249   -3.9522    2.2755 H   0  0  0  0  0  0  0  0  0  0  0  0
    3.8825   -0.9207    1.6109 H   0  0  0  0  0  0  0  0  0  0  0  0
    5.3026    1.0665    1.2036 H   0  0  0  0  0  0  0  0  0  0  0  0
    6.1731    2.1811   -2.9619 H   0  0  0  0  0  0  0  0  0  0  0  0
    4.8055    3.3135   -2.6264 H   0  0  0  0  0  0  0  0  0  0  0  0
    6.4593    3.7324   -2.1635 H   0  0  0  0  0  0  0  0  0  0  0  0
    4.0325    1.1006   -2.9177 H   0  0  0  0  0  0  0  0  0  0  0  0
    2.6302   -0.8622   -2.4943 H   0  0  0  0  0  0  0  0  0  0  0  0
  1  2  1  0
  2  3  1  0
  3  4  1  0
  4  5  1  0
  5  6  1  0
  6  7  1  0
  7  8  1  0
  8  9  1  0
  2 10  2  0
 10 11  1  0
 11 12  1  0
 11 13  2  0
 13 14  1  0
 14 15  2  0
 14 16  1  0
 13 17  1  0
 17 18  2  3
 18 19  1  0
 19 20  2  0
 20 21  1  0
 21 22  2  0
 22 23  1  0
 23 24  1  0
 22 25  1  0
 25 26  2  0
 17  1  1  0
 26 19  1  0
  9  5  1  0
  1 27  1  0
  3 28  1  0
  4 29  1  0
  4 30  1  0
  5 31  1  0
  6 32  1  0
  6 33  1  0
  7 34  1  0
  7 35  1  0
  8 36  1  0
  8 37  1  0
 12 38  1  0
 12 39  1  0
 12 40  1  0
 20 41  1  0
 21 42  1  0
 24 43  1  0
 24 44  1  0
 24 45  1  0
 25 46  1  0
 26 47  1  0
M  CHG  2  14   1  16  -1
M  END
>  <ScrubInfo>  (2) 
{"isomerGroup": 0, "isomerId": 1, "confId": 0, "nr_conformers:": 1, "nr_isomers:": 6}

$$$$
_i2
     RDKit          3D

 47 49  0  0  0  0  0  0  0  0999 V2000
    0.5136   -0.8986   -0.9573 N   0  0  0  0  0  0  0  0  0  0  0  0
    0.0318   -1.8827   -0.1069 C   0  0  0  0  0  0  0  0  0  0  0  0
   -0.9050   -1.5633    0.8702 N   0  0  0  0  0  0  0  0  0  0  0  0
   -1.8696   -0.5398    0.8968 C   0  0  0  0  0  0  0  0  0  0  0  0
   -2.3904   -0.1466    2.1383 C   0  0  0  0  0  0  0  0  0  0  0  0
   -3.3167    0.8995    2.2454 C   0  0  0  0  0  0  0  0  0  0  0  0
   -3.7359    1.5799    1.1056 C   0  0  0  0  0  0  0  0  0  0  0  0
   -4.6290    2.6135    1.0647 O   0  0  0  0  0  0  0  0  0  0  0  0
   -5.1880    3.0296    2.3043 C   0  0  0  0  0  0  0  0  0  0  0  0
   -3.2196    1.2025   -0.1335 C   0  0  0  0  0  0  0  0  0  0  0  0
   -2.2939    0.1579   -0.2373 C   0  0  0  0  0  0  0  0  0  0  0  0
    0.5738   -3.1133   -0.2727 C   0  0  0  0  0  0  0  0  0  0  0  0
    0.1218   -4.2138    0.5320 N   0  0  0  0  0  4  0  0  0  0  0  0
   -0.0517   -4.0115    1.7440 O   0  0  0  0  0  0  0  0  0  0  0  0
   -0.0816   -5.2926   -0.0369 O   0  0  0  0  0  1  0  0  0  0  0  0
    1.6342   -3.2782   -1.3008 C   0  0  0  0  0  0  0  0  0  0  0  0
    2.2911   -4.6263   -1.5031 C   0  0  0  0  0  0  0  0  0  0  0  0
    2.0680   -2.3097   -2.0526 N   0  0  0  0  0  0  0  0  0  0  0  0
    1.5148   -1.0662   -1.8739 C   0  0  0  0  0  0  0  0  0  0  0  0
    2.0389   -0.1657   -2.6227 N   0  0  0  0  0  0  0  0  0  0  0  0
    1.5004    1.1978   -2.6175 C   0  0  0  0  0  0  0  0  0  0  0  0
    1.9429    2.0258   -1.4088 C   0  0  0  0  0  0  0  0  0  0  0  0
    3.4322    2.0232   -1.1095 C   0  0  0  0  0  0  0  0  0  0  0  0
    3.4393    2.4155    0.3475 C   0  0  0  0  0  0  0  0  0  0  0  0
    2.2253    1.6834    0.8802 C   0  0  0  0  0  0  0  0  0  0  0  0
    1.2850    1.5749   -0.2031 O   0  0  0  0  0  0  0  0  0  0  0  0
    0.3643    0.0550   -0.6269 H   0  0  0  0  0  0  0  0  0  0  0  0
   -1.0125   -2.2471    1.6236 H   0  0  0  0  0  0  0  0  0  0  0  0
   -2.0688   -0.6494    3.0480 H   0  0  0  0  0  0  0  0  0  0  0  0
   -3.6828    1.1566    3.2335 H   0  0  0  0  0  0  0  0  0  0  0  0
   -5.8781    3.8539    2.0998 H   0  0  0  0  0  0  0  0  0  0  0  0
   -5.7625    2.2218    2.7695 H   0  0  0  0  0  0  0  0  0  0  0  0
   -4.4127    3.4045    2.9807 H   0  0  0  0  0  0  0  0  0  0  0  0
   -3.5426    1.7235   -1.0318 H   0  0  0  0  0  0  0  0  0  0  0  0
   -1.9429   -0.1136   -1.2286 H   0  0  0  0  0  0  0  0  0  0  0  0
    1.6203   -5.2808   -2.0662 H   0  0  0  0  0  0  0  0  0  0  0  0
    3.2177   -4.5110   -2.0747 H   0  0  0  0  0  0  0  0  0  0  0  0
    2.5459   -5.0818   -0.5426 H   0  0  0  0  0  0  0  0  0  0  0  0
    0.4054    1.1730   -2.6824 H   0  0  0  0  0  0  0  0  0  0  0  0
    1.8551    1.6895   -3.5306 H   0  0  0  0  0  0  0  0  0  0  0  0
    1.6055    3.0591   -1.5626 H   0  0  0  0  0  0  0  0  0  0  0  0
    3.8680    1.0236   -1.2153 H   0  0  0  0  0  0  0  0  0  0  0  0
    3.9940    2.7119   -1.7464 H   0  0  0  0  0  0  0  0  0  0  0  0
    4.3613    2.1487    0.8707 H   0  0  0  0  0  0  0  0  0  0  0  0
    3.2940    3.4983    0.4417 H   0  0  0  0  0  0  0  0  0  0  0  0
    1.7570    2.2022    1.7212 H   0  0  0  0  0  0  0  0  0  0  0  0
    2.4828    0.6670    1.1966 H   0  0  0  0  0  0  0  0  0  0  0  0
  1  2  1  0
  2  3  1  0
  3  4  1  0
  4  5  2  0
  5  6  1  0
  6  7  2  0
  7  8  1  0
  8  9  1  0
  7 10  1  0
 10 11  2  0
  2 12  2  0
 12 13  1  0
 13 14  2  0
 13 15  1  0
 12 16  1  0
 16 17  1  0
 16 18  2  0
 18 19  1  0
 19 20  2  3
 20 21  1  0
 21 22  1  0
 22 23  1  0
 23 24  1  0
 24 25  1  0
 25 26  1  0
 19  1  1  0
 26 22  1  0
 11  4  1  0
  1 27  1  0
  3 28  1  0
  5 29  1  0
  6 30  1  0
  9 31  1  0
  9 32  1  0
  9 33  1  0
 10 34  1  0
 11 35  1  0
 17 36  1  0
 17 37  1  0
 17 38  1  0
 21 39  1  0
 21 40  1  0
 22 41  1  0
 23 42  1  0
 23 43  1  0
 24 44  1  0
 24 45  1  0
 25 46  1  0
 25 47  1  0
M  CHG  2  13   1  15  -1
M  END
>  <ScrubInfo>  (3) 
{"isomerGroup": 0, "isomerId": 2, "confId": 0, "nr_conformers:": 1, "nr_isomers:": 6}

$$$$
_i3
     RDKit          3D

 47 49  0  0  0  0  0  0  0  0999 V2000
   -1.5527   -1.4028   -0.9450 N   0  0  0  0  0  0  0  0  0  0  0  0
   -0.4115   -1.6646   -1.6889 C   0  0  0  0  0  0  0  0  0  0  0  0
   -0.6069   -1.8175   -3.1738 C   0  0  0  0  0  0  0  0  0  0  0  0
    0.7509   -1.7909   -1.0233 C   0  0  0  0  0  0  0  0  0  0  0  0
    1.9601   -2.0971   -1.7208 N   0  0  0  0  0  4  0  0  0  0  0  0
    2.4490   -3.2189   -1.5389 O   0  0  0  0  0  0  0  0  0  0  0  0
    2.4044   -1.2296   -2.4861 O   0  0  0  0  0  1  0  0  0  0  0  0
    0.7356   -1.6380    0.4632 C   0  0  0  0  0  0  0  0  0  0  0  0
    1.8643   -1.7244    1.2595 N   0  0  0  0  0  0  0  0  0  0  0  0
    2.9930   -0.8844    1.0938 C   0  0  0  0  0  0  0  0  0  0  0  0
    2.9058    0.4086    0.5647 C   0  0  0  0  0  0  0  0  0  0  0  0
    4.0407    1.2258    0.4773 C   0  0  0  0  0  0  0  0  0  0  0  0
    5.2732    0.7685    0.9408 C   0  0  0  0  0  0  0  0  0  0  0  0
    6.4509    1.4620    0.9168 O   0  0  0  0  0  0  0  0  0  0  0  0
    6.4357    2.7321    0.2774 C   0  0  0  0  0  0  0  0  0  0  0  0
    5.3562   -0.5056    1.5033 C   0  0  0  0  0  0  0  0  0  0  0  0
    4.2251   -1.3213    1.5892 C   0  0  0  0  0  0  0  0  0  0  0  0
   -0.3813   -1.4293    1.1244 N   0  0  0  0  0  0  0  0  0  0  0  0
   -1.5597   -1.3124    0.4254 C   0  0  0  0  0  0  0  0  0  0  0  0
   -2.5739   -1.1098    1.1846 N   0  0  0  0  0  0  0  0  0  0  0  0
   -3.9073   -0.9703    0.6087 C   0  0  0  0  0  0  0  0  0  0  0  0
   -4.1783    0.4791    0.2038 C   0  0  0  0  0  0  0  0  0  0  0  0
   -4.4188    1.4148    1.3780 C   0  0  0  0  0  0  0  0  0  0  0  0
   -5.2675    2.4861    0.7409 C   0  0  0  0  0  0  0  0  0  0  0  0
   -6.1376    1.6775   -0.1975 C   0  0  0  0  0  0  0  0  0  0  0  0
   -5.3588    0.5475   -0.6209 O   0  0  0  0  0  0  0  0  0  0  0  0
   -2.4291   -1.3227   -1.4438 H   0  0  0  0  0  0  0  0  0  0  0  0
   -1.4417   -2.4983   -3.3753 H   0  0  0  0  0  0  0  0  0  0  0  0
   -0.8425   -0.8465   -3.6219 H   0  0  0  0  0  0  0  0  0  0  0  0
    0.2647   -2.2277   -3.6903 H   0  0  0  0  0  0  0  0  0  0  0  0
    1.5800   -1.6738    2.2390 H   0  0  0  0  0  0  0  0  0  0  0  0
    1.9556    0.8110    0.2230 H   0  0  0  0  0  0  0  0  0  0  0  0
    3.9229    2.2162    0.0505 H   0  0  0  0  0  0  0  0  0  0  0  0
    7.4540    3.1319    0.3038 H   0  0  0  0  0  0  0  0  0  0  0  0
    5.7885    3.4342    0.8132 H   0  0  0  0  0  0  0  0  0  0  0  0
    6.1398    2.6436   -0.7733 H   0  0  0  0  0  0  0  0  0  0  0  0
    6.3109   -0.8689    1.8762 H   0  0  0  0  0  0  0  0  0  0  0  0
    4.3184   -2.3117    2.0289 H   0  0  0  0  0  0  0  0  0  0  0  0
   -4.6456   -1.2931    1.3531 H   0  0  0  0  0  0  0  0  0  0  0  0
   -4.0678   -1.6489   -0.2378 H   0  0  0  0  0  0  0  0  0  0  0  0
   -3.3538    0.8633   -0.4096 H   0  0  0  0  0  0  0  0  0  0  0  0
   -4.9906    0.9171    2.1703 H   0  0  0  0  0  0  0  0  0  0  0  0
   -3.4916    1.7977    1.8136 H   0  0  0  0  0  0  0  0  0  0  0  0
   -5.8452    3.0748    1.4580 H   0  0  0  0  0  0  0  0  0  0  0  0
   -4.6322    3.1705    0.1663 H   0  0  0  0  0  0  0  0  0  0  0  0
   -6.4594    2.2510   -1.0712 H   0  0  0  0  0  0  0  0  0  0  0  0
   -7.0259    1.2951    0.3165 H   0  0  0  0  0  0  0  0  0  0  0  0
  1  2  1  0
  2  3  1  0
  2  4  2  0
  4  5  1  0
  5  6  2  0
  5  7  1  0
  4  8  1  0
  8  9  1  0
  9 10  1  0
 10 11  2  0
 11 12  1  0
 12 13  2  0
 13 14  1  0
 14 15  1  0
 13 16  1  0
 16 17  2  0
  8 18  2  0
 18 19  1  0
 19 20  2  3
 20 21  1  0
 21 22  1  0
 22 23  1  0
 23 24  1  0
 24 25  1  0
 25 26  1  0
 19  1  1  0
 26 22  1  0
 17 10  1  0
  1 27  1  0
  3 28  1  0
  3 29  1  0
  3 30  1  0
  9 31  1  0
 11 32  1  0
 12 33  1  0
 15 34  1  0
 15 35  1  0
 15 36  1  0
 16 37  1  0
 17 38  1  0
 21 39  1  0
 21 40  1  0
 22 41  1  0
 23 42  1  0
 23 43  1  0
 24 44  1  0
 24 45  1  0
 25 46  1  0
 25 47  1  0
M  CHG  2   5   1   7  -1
M  END
>  <ScrubInfo>  (4) 
{"isomerGroup": 0, "isomerId": 3, "confId": 0, "nr_conformers:": 1, "nr_isomers:": 6}

$$$$
_i4
     RDKit          3D

 47 49  0  0  0  0  0  0  0  0999 V2000
   -1.4023   -2.2332   -1.5605 N   0  0  0  0  0  0  0  0  0  0  0  0
   -0.6477   -1.1018   -1.4838 C   0  0  0  0  0  0  0  0  0  0  0  0
   -1.0897   -0.0423   -2.2140 N   0  0  0  0  0  0  0  0  0  0  0  0
   -2.4619    0.4510   -2.1236 C   0  0  0  0  0  0  0  0  0  0  0  0
   -2.8327    0.9163   -0.7100 C   0  0  0  0  0  0  0  0  0  0  0  0
   -2.0010    2.0816   -0.1963 C   0  0  0  0  0  0  0  0  0  0  0  0
   -2.9302    2.6862    0.8260 C   0  0  0  0  0  0  0  0  0  0  0  0
   -4.2795    2.5309    0.1574 C   0  0  0  0  0  0  0  0  0  0  0  0
   -4.2009    1.3712   -0.6868 O   0  0  0  0  0  0  0  0  0  0  0  0
    0.4346   -0.9867   -0.7798 N   0  0  0  0  0  0  0  0  0  0  0  0
    0.8681   -2.0757   -0.0334 C   0  0  0  0  0  0  0  0  0  0  0  0
    1.8899   -1.9719    0.7620 N   0  0  0  0  0  0  0  0  0  0  0  0
    2.5531   -0.7417    0.8659 C   0  0  0  0  0  0  0  0  0  0  0  0
    3.5541   -0.3893   -0.0400 C   0  0  0  0  0  0  0  0  0  0  0  0
    4.2245    0.8299    0.0897 C   0  0  0  0  0  0  0  0  0  0  0  0
    3.9152    1.7042    1.1348 C   0  0  0  0  0  0  0  0  0  0  0  0
    4.6435    2.8618    1.1466 O   0  0  0  0  0  0  0  0  0  0  0  0
    4.4123    3.7540    2.2292 C   0  0  0  0  0  0  0  0  0  0  0  0
    2.9276    1.3462    2.0530 C   0  0  0  0  0  0  0  0  0  0  0  0
    2.2556    0.1254    1.9194 C   0  0  0  0  0  0  0  0  0  0  0  0
    0.1166   -3.3418   -0.1841 C   0  0  0  0  0  0  0  0  0  0  0  0
    0.5856   -4.5013    0.4977 N   0  0  0  0  0  4  0  0  0  0  0  0
    0.0735   -4.7541    1.5971 O   0  0  0  0  0  0  0  0  0  0  0  0
    1.4129   -5.2070   -0.0949 O   0  0  0  0  0  1  0  0  0  0  0  0
   -0.9949   -3.4047   -0.9407 C   0  0  0  0  0  0  0  0  0  0  0  0
   -1.8354   -4.6264   -1.1893 C   0  0  0  0  0  0  0  0  0  0  0  0
   -2.0838   -2.3043   -2.3070 H   0  0  0  0  0  0  0  0  0  0  0  0
   -0.4213    0.7218   -2.1176 H   0  0  0  0  0  0  0  0  0  0  0  0
   -3.1688   -0.3176   -2.4579 H   0  0  0  0  0  0  0  0  0  0  0  0
   -2.5851    1.2805   -2.8306 H   0  0  0  0  0  0  0  0  0  0  0  0
   -2.7687    0.0764   -0.0068 H   0  0  0  0  0  0  0  0  0  0  0  0
   -1.8083    2.8085   -0.9945 H   0  0  0  0  0  0  0  0  0  0  0  0
   -1.0414    1.7695    0.2254 H   0  0  0  0  0  0  0  0  0  0  0  0
   -2.6949    3.7239    1.0760 H   0  0  0  0  0  0  0  0  0  0  0  0
   -2.9005    2.0965    1.7499 H   0  0  0  0  0  0  0  0  0  0  0  0
   -5.0929    2.4073    0.8778 H   0  0  0  0  0  0  0  0  0  0  0  0
   -4.5063    3.3908   -0.4816 H   0  0  0  0  0  0  0  0  0  0  0  0
    3.8102   -1.0645   -0.8509 H   0  0  0  0  0  0  0  0  0  0  0  0
    4.9977    1.0960   -0.6263 H   0  0  0  0  0  0  0  0  0  0  0  0
    4.6454    3.2810    3.1890 H   0  0  0  0  0  0  0  0  0  0  0  0
    5.0850    4.6085    2.1075 H   0  0  0  0  0  0  0  0  0  0  0  0
    3.3856    4.1342    2.2140 H   0  0  0  0  0  0  0  0  0  0  0  0
    2.6574    1.9866    2.8850 H   0  0  0  0  0  0  0  0  0  0  0  0
    1.4949   -0.1548    2.6424 H   0  0  0  0  0  0  0  0  0  0  0  0
   -1.4554   -5.5268   -0.6995 H   0  0  0  0  0  0  0  0  0  0  0  0
   -1.8845   -4.8354   -2.2635 H   0  0  0  0  0  0  0  0  0  0  0  0
   -2.8552   -4.4588   -0.8264 H   0  0  0  0  0  0  0  0  0  0  0  0
  1  2  1  0
  2  3  1  0
  3  4  1  0
  4  5  1  0
  5  6  1  0
  6  7  1  0
  7  8  1  0
  8  9  1  0
  2 10  2  0
 10 11  1  0
 11 12  2  3
 12 13  1  0
 13 14  2  0
 14 15  1  0
 15 16  2  0
 16 17  1  0
 17 18  1  0
 16 19  1  0
 19 20  2  0
 11 21  1  0
 21 22  1  0
 22 23  2  0
 22 24  1  0
 21 25  2  0
 25 26  1  0
 25  1  1  0
  9  5  1  0
 20 13  1  0
  1 27  1  0
  3 28  1  0
  4 29  1  0
  4 30  1  0
  5 31  1  0
  6 32  1  0
  6 33  1  0
  7 34  1  0
  7 35  1  0
  8 36  1  0
  8 37  1  0
 14 38  1  0
 15 39  1  0
 18 40  1  0
 18 41  1  0
 18 42  1  0
 19 43  1  0
 20 44  1  0
 26 45  1  0
 26 46  1  0
 26 47  1  0
M  CHG  2  22   1  24  -1
M  END
>  <ScrubInfo>  (5) 
{"isomerGroup": 0, "isomerId": 4, "confId": 0, "nr_conformers:": 1, "nr_isomers:": 6}

$$$$
_i5
     RDKit          3D

 47 49  0  0  0  0  0  0  0  0999 V2000
   -1.4498   -1.0868   -0.5026 N   0  0  0  0  0  0  0  0  0  0  0  0
   -0.2306   -1.1276   -1.1916 C   0  0  0  0  0  0  0  0  0  0  0  0
   -0.3067   -1.7358   -2.5727 C   0  0  0  0  0  0  0  0  0  0  0  0
    0.8969   -0.6465   -0.6150 C   0  0  0  0  0  0  0  0  0  0  0  0
    2.1223   -0.7082   -1.3399 N   0  0  0  0  0  4  0  0  0  0  0  0
    2.7973   -1.7390   -1.2148 O   0  0  0  0  0  0  0  0  0  0  0  0
    2.3730    0.2368   -2.0997 O   0  0  0  0  0  1  0  0  0  0  0  0
    0.7882   -0.0768    0.7668 C   0  0  0  0  0  0  0  0  0  0  0  0
    1.6873    0.4520    1.5510 N   0  0  0  0  0  0  0  0  0  0  0  0
    3.0283    0.5926    1.1963 C   0  0  0  0  0  0  0  0  0  0  0  0
    3.9516   -0.4031    1.5197 C   0  0  0  0  0  0  0  0  0  0  0  0
    5.3060   -0.2514    1.2002 C   0  0  0  0  0  0  0  0  0  0  0  0
    5.7501    0.9118    0.5713 C   0  0  0  0  0  0  0  0  0  0  0  0
    7.0388    1.1877    0.2067 O   0  0  0  0  0  0  0  0  0  0  0  0
    7.9943    0.1521    0.3980 C   0  0  0  0  0  0  0  0  0  0  0  0
    4.8309    1.9220    0.2791 C   0  0  0  0  0  0  0  0  0  0  0  0
    3.4791    1.7681    0.5968 C   0  0  0  0  0  0  0  0  0  0  0  0
   -0.4812   -0.1111    1.3133 N   0  0  0  0  0  0  0  0  0  0  0  0
   -1.6408   -0.5869    0.7680 C   0  0  0  0  0  0  0  0  0  0  0  0
   -2.7311   -0.5165    1.4485 N   0  0  0  0  0  0  0  0  0  0  0  0
   -3.9708   -1.0374    0.8719 C   0  0  0  0  0  0  0  0  0  0  0  0
   -4.6655    0.0207    0.0138 C   0  0  0  0  0  0  0  0  0  0  0  0
   -5.3010    1.1464    0.8144 C   0  0  0  0  0  0  0  0  0  0  0  0
   -6.3910    1.6036   -0.1222 C   0  0  0  0  0  0  0  0  0  0  0  0
   -6.8637    0.2934   -0.7149 C   0  0  0  0  0  0  0  0  0  0  0  0
   -5.7275   -0.5846   -0.7501 O   0  0  0  0  0  0  0  0  0  0  0  0
   -2.2548   -1.4556   -0.9973 H   0  0  0  0  0  0  0  0  0  0  0  0
   -0.6805   -2.7635   -2.5067 H   0  0  0  0  0  0  0  0  0  0  0  0
   -0.9997   -1.1593   -3.1953 H   0  0  0  0  0  0  0  0  0  0  0  0
    0.6504   -1.7720   -3.0986 H   0  0  0  0  0  0  0  0  0  0  0  0
    3.6171   -1.3077    2.0202 H   0  0  0  0  0  0  0  0  0  0  0  0
    5.9833   -1.0576    1.4599 H   0  0  0  0  0  0  0  0  0  0  0  0
    8.1218   -0.0737    1.4618 H   0  0  0  0  0  0  0  0  0  0  0  0
    7.7248   -0.7459   -0.1680 H   0  0  0  0  0  0  0  0  0  0  0  0
    8.9556    0.5097    0.0166 H   0  0  0  0  0  0  0  0  0  0  0  0
    5.1697    2.8364   -0.2013 H   0  0  0  0  0  0  0  0  0  0  0  0
    2.7799    2.5680    0.3714 H   0  0  0  0  0  0  0  0  0  0  0  0
   -0.5619    0.2690    2.2472 H   0  0  0  0  0  0  0  0  0  0  0  0
   -4.6328   -1.3468    1.6900 H   0  0  0  0  0  0  0  0  0  0  0  0
   -3.8052   -1.9574    0.2981 H   0  0  0  0  0  0  0  0  0  0  0  0
   -3.9620    0.4400   -0.7161 H   0  0  0  0  0  0  0  0  0  0  0  0
   -5.7487    0.7688    1.7415 H   0  0  0  0  0  0  0  0  0  0  0  0
   -4.5917    1.9373    1.0734 H   0  0  0  0  0  0  0  0  0  0  0  0
   -7.1904    2.1619    0.3717 H   0  0  0  0  0  0  0  0  0  0  0  0
   -5.9636    2.2377   -0.9080 H   0  0  0  0  0  0  0  0  0  0  0  0
   -7.2697    0.4106   -1.7235 H   0  0  0  0  0  0  0  0  0  0  0  0
   -7.6259   -0.1751   -0.0832 H   0  0  0  0  0  0  0  0  0  0  0  0
  1  2  1  0
  2  3  1  0
  2  4  2  0
  4  5  1  0
  5  6  2  0
  5  7  1  0
  4  8  1  0
  8  9  2  3
  9 10  1  0
 10 11  2  0
 11 12  1  0
 12 13  2  0
 13 14  1  0
 14 15  1  0
 13 16  1  0
 16 17  2  0
  8 18  1  0
 18 19  1  0
 19 20  2  3
 20 21  1  0
 21 22  1  0
 22 23  1  0
 23 24  1  0
 24 25  1  0
 25 26  1  0
 19  1  1  0
 26 22  1  0
 17 10  1  0
  1 27  1  0
  3 28  1  0
  3 29  1  0
  3 30  1  0
 11 31  1  0
 12 32  1  0
 15 33  1  0
 15 34  1  0
 15 35  1  0
 16 36  1  0
 17 37  1  0
 18 38  1  0
 21 39  1  0
 21 40  1  0
 22 41  1  0
 23 42  1  0
 23 43  1  0
 24 44  1  0
 24 45  1  0
 25 46  1  0
 25 47  1  0
M  CHG  2   5   1   7  -1
M  END
>  <ScrubInfo>  (6) 
{"isomerGroup": 0, "isomerId": 5, "confId": 0, "nr_conformers:": 1, "nr_isomers:": 6}

$$$$
