REMARK SMILES COCCNc1nc(Nc2ccc(C)c(C)c2)c2nccnc2n1
REMARK SMILES IDX 5 1 4 3 3 4 2 5 1 6 6 7 7 8 24 9 8 10 23 11 18 12 22 13
REMARK SMILES IDX 19 14 21 15 20 16 9 17 10 19 11 20 17 21 12 22 15 23 13 24
REMARK SMILES IDX 16 25 14 26
REMARK H PARENT 5 2 9 18
ROOT
ATOM      1  N   UNL     1       3.457   1.151  -0.291  1.00  0.00    -0.352 N 
ATOM      2  H   UNL     1       3.040   2.033  -0.570  1.00  0.00     0.163 HD
ENDROOT
BRANCH   1   3
ATOM      3  C   UNL     1       4.402   0.593  -1.251  1.00  0.00     0.144 C 
BRANCH   3   4
ATOM      4  C   UNL     1       5.482  -0.272  -0.584  1.00  0.00     0.181 C 
BRANCH   4   5
ATOM      5  O   UNL     1       6.608  -0.448  -1.454  1.00  0.00    -0.383 OA
ATOM      6  C   UNL     1       7.590   0.567  -1.290  1.00  0.00     0.194 C 
ENDBRANCH   4   5
ENDBRANCH   3   4
ENDBRANCH   1   3
BRANCH   1   7
ATOM      7  C   UNL     1       2.404   0.329   0.078  1.00  0.00     0.226 A 
ATOM      8  N   UNL     1       1.260   0.951   0.344  1.00  0.00    -0.193 NA
ATOM      9  N   UNL     1       2.562  -0.986   0.156  1.00  0.00    -0.191 NA
ATOM     10  C   UNL     1       0.206   0.191   0.710  1.00  0.00     0.164 A 
ATOM     11  C   UNL     1       1.532  -1.724   0.546  1.00  0.00     0.185 A 
ATOM     12  C   UNL     1       0.272  -1.196   0.861  1.00  0.00     0.150 A 
ATOM     13  N   UNL     1       1.746  -3.042   0.635  1.00  0.00    -0.233 NA
ATOM     14  N   UNL     1      -0.756  -2.001   1.285  1.00  0.00    -0.247 NA
ATOM     15  C   UNL     1       0.729  -3.829   1.049  1.00  0.00     0.133 A 
ATOM     16  C   UNL     1      -0.504  -3.318   1.373  1.00  0.00     0.132 A 
BRANCH  10  17
ATOM     17  N   UNL     1      -0.961   0.937   0.981  1.00  0.00    -0.338 N 
ATOM     18  H   UNL     1      -0.713   1.917   0.863  1.00  0.00     0.168 HD
BRANCH  17  19
ATOM     19  C   UNL     1      -2.284   0.724   0.534  1.00  0.00     0.040 A 
ATOM     20  C   UNL     1      -2.627  -0.165  -0.484  1.00  0.00     0.026 A 
ATOM     21  C   UNL     1      -3.309   1.477   1.127  1.00  0.00     0.029 A 
ATOM     22  C   UNL     1      -3.957  -0.306  -0.893  1.00  0.00     0.006 A 
ATOM     23  C   UNL     1      -4.652   1.349   0.729  1.00  0.00    -0.046 A 
ATOM     24  C   UNL     1      -4.979   0.443  -0.295  1.00  0.00    -0.048 A 
ATOM     25  C   UNL     1      -5.705   2.176   1.413  1.00  0.00     0.044 C 
ATOM     26  C   UNL     1      -6.397   0.261  -0.761  1.00  0.00     0.044 C 
ENDBRANCH  17  19
ENDBRANCH  10  17
ENDBRANCH   1   7
TORSDOF 6
