_i0
     RDKit          3D

 44 46  0  0  0  0  0  0  0  0999 V2000
    7.5898    0.5672   -1.2896 C   0  0  0  0  0  0  0  0  0  0  0  0
    6.6084   -0.4483   -1.4541 O   0  0  0  0  0  0  0  0  0  0  0  0
    5.4825   -0.2715   -0.5841 C   0  0  0  0  0  0  0  0  0  0  0  0
    4.4023    0.5931   -1.2508 C   0  0  0  0  0  0  0  0  0  0  0  0
    3.4568    1.1505   -0.2911 N   0  0  0  0  0  0  0  0  0  0  0  0
    2.4041    0.3287    0.0781 C   0  0  0  0  0  0  0  0  0  0  0  0
    1.2599    0.9512    0.3435 N   0  0  0  0  0  0  0  0  0  0  0  0
    0.2061    0.1911    0.7095 C   0  0  0  0  0  0  0  0  0  0  0  0
   -0.9612    0.9371    0.9810 N   0  0  0  0  0  0  0  0  0  0  0  0
   -2.2845    0.7240    0.5345 C   0  0  0  0  0  0  0  0  0  0  0  0
   -2.6272   -0.1651   -0.4841 C   0  0  0  0  0  0  0  0  0  0  0  0
   -3.9569   -0.3063   -0.8934 C   0  0  0  0  0  0  0  0  0  0  0  0
   -4.9795    0.4426   -0.2955 C   0  0  0  0  0  0  0  0  0  0  0  0
   -6.3975    0.2605   -0.7615 C   0  0  0  0  0  0  0  0  0  0  0  0
   -4.6515    1.3492    0.7286 C   0  0  0  0  0  0  0  0  0  0  0  0
   -5.7047    2.1765    1.4126 C   0  0  0  0  0  0  0  0  0  0  0  0
   -3.3089    1.4770    1.1274 C   0  0  0  0  0  0  0  0  0  0  0  0
    0.2720   -1.1962    0.8611 C   0  0  0  0  0  0  0  0  0  0  0  0
   -0.7559   -2.0014    1.2851 N   0  0  0  0  0  0  0  0  0  0  0  0
   -0.5036   -3.3182    1.3729 C   0  0  0  0  0  0  0  0  0  0  0  0
    0.7293   -3.8286    1.0494 C   0  0  0  0  0  0  0  0  0  0  0  0
    1.7462   -3.0422    0.6348 N   0  0  0  0  0  0  0  0  0  0  0  0
    1.5315   -1.7238    0.5462 C   0  0  0  0  0  0  0  0  0  0  0  0
    2.5624   -0.9856    0.1556 N   0  0  0  0  0  0  0  0  0  0  0  0
    7.1700    1.5571   -1.4889 H   0  0  0  0  0  0  0  0  0  0  0  0
    8.0072    0.5324   -0.2786 H   0  0  0  0  0  0  0  0  0  0  0  0
    8.3969    0.3821   -2.0035 H   0  0  0  0  0  0  0  0  0  0  0  0
    5.8032    0.1491    0.3770 H   0  0  0  0  0  0  0  0  0  0  0  0
    5.0858   -1.2706   -0.3792 H   0  0  0  0  0  0  0  0  0  0  0  0
    4.8847    1.4358   -1.7594 H   0  0  0  0  0  0  0  0  0  0  0  0
    3.8984    0.0330   -2.0495 H   0  0  0  0  0  0  0  0  0  0  0  0
    3.0401    2.0328   -0.5698 H   0  0  0  0  0  0  0  0  0  0  0  0
   -0.7132    1.9168    0.8632 H   0  0  0  0  0  0  0  0  0  0  0  0
   -1.8704   -0.7592   -0.9863 H   0  0  0  0  0  0  0  0  0  0  0  0
   -4.1856   -1.0121   -1.6890 H   0  0  0  0  0  0  0  0  0  0  0  0
   -6.7879    1.1994   -1.1665 H   0  0  0  0  0  0  0  0  0  0  0  0
   -6.4673   -0.4943   -1.5520 H   0  0  0  0  0  0  0  0  0  0  0  0
   -7.0309   -0.0720    0.0670 H   0  0  0  0  0  0  0  0  0  0  0  0
   -6.2296    2.8030    0.6845 H   0  0  0  0  0  0  0  0  0  0  0  0
   -5.2683    2.8430    2.1642 H   0  0  0  0  0  0  0  0  0  0  0  0
   -6.4239    1.5285    1.9235 H   0  0  0  0  0  0  0  0  0  0  0  0
   -3.0536    2.1687    1.9282 H   0  0  0  0  0  0  0  0  0  0  0  0
   -1.3201   -3.9460    1.7089 H   0  0  0  0  0  0  0  0  0  0  0  0
    0.9444   -4.8890    1.1140 H   0  0  0  0  0  0  0  0  0  0  0  0
  1  2  1  0
  2  3  1  0
  3  4  1  0
  4  5  1  0
  5  6  1  0
  6  7  2  0
  7  8  1  0
  8  9  1  0
  9 10  1  0
 10 11  2  0
 11 12  1  0
 12 13  2  0
 13 14  1  0
 13 15  1  0
 15 16  1  0
 15 17  2  0
  8 18  2  0
 18 19  1  0
 19 20  2  0
 20 21  1  0
 21 22  2  0
 22 23  1  0
 23 24  2  0
 24  6  1  0
 17 10  1  0
 23 18  1  0
  1 25  1  0
  1 26  1  0
  1 27  1  0
  3 28  1  0
  3 29  1  0
  4 30  1  0
  4 31  1  0
  5 32  1  0
  9 33  1  0
 11 34  1  0
 12 35  1  0
 14 36  1  0
 14 37  1  0
 14 38  1  0
 16 39  1  0
 16 40  1  0
 16 41  1  0
 17 42  1  0
 20 43  1  0
 21 44  1  0
M  END
>  <ScrubInfo>  (1) 
{"isomerGroup": 0, "isomerId": 0, "confId": 0, "nr_conformers:": 1, "nr_isomers:": 9}

$$$$
_i1
     RDKit          3D

 44 46  0  0  0  0  0  0  0  0999 V2000
    1.0232   -0.9710    0.5437 N   0  0  0  0  0  0  0  0  0  0  0  0
    0.3154   -1.9984   -0.0388 C   0  0  0  0  0  0  0  0  0  0  0  0
   -0.6201   -1.7677   -1.0398 N   0  0  0  0  0  0  0  0  0  0  0  0
   -1.5159   -0.6897   -1.1781 C   0  0  0  0  0  0  0  0  0  0  0  0
   -2.1396   -0.5045   -2.4163 C   0  0  0  0  0  0  0  0  0  0  0  0
   -3.0059    0.5695   -2.6352 C   0  0  0  0  0  0  0  0  0  0  0  0
   -3.2712    1.4942   -1.6177 C   0  0  0  0  0  0  0  0  0  0  0  0
   -4.2045    2.6421   -1.8876 C   0  0  0  0  0  0  0  0  0  0  0  0
   -2.6487    1.3294   -0.3667 C   0  0  0  0  0  0  0  0  0  0  0  0
   -2.9013    2.2864    0.7667 C   0  0  0  0  0  0  0  0  0  0  0  0
   -1.7812    0.2389   -0.1645 C   0  0  0  0  0  0  0  0  0  0  0  0
    0.5923   -3.2708    0.3363 C   0  0  0  0  0  0  0  0  0  0  0  0
   -0.0374   -4.3695   -0.2155 N   0  0  0  0  0  0  0  0  0  0  0  0
    0.3257   -5.5060    0.2792 C   0  0  0  0  0  0  0  0  0  0  0  0
    1.3444   -5.6340    1.3613 C   0  0  0  0  0  0  0  0  0  0  0  0
    1.9506   -4.6221    1.8782 N   0  0  0  0  0  0  0  0  0  0  0  0
    1.6474   -3.3627    1.4140 C   0  0  0  0  0  0  0  0  0  0  0  0
    2.2977   -2.3853    1.9466 N   0  0  0  0  0  0  0  0  0  0  0  0
    2.0026   -1.1320    1.4831 C   0  0  0  0  0  0  0  0  0  0  0  0
    2.7267   -0.2108    2.0099 N   0  0  0  0  0  0  0  0  0  0  0  0
    2.5207    1.1845    1.6399 C   0  0  0  0  0  0  0  0  0  0  0  0
    3.3789    1.5558    0.4289 C   0  0  0  0  0  0  0  0  0  0  0  0
    3.0234    2.8365   -0.0977 O   0  0  0  0  0  0  0  0  0  0  0  0
    3.5645    3.9129    0.6572 C   0  0  0  0  0  0  0  0  0  0  0  0
    0.9008   -0.0745    0.0969 H   0  0  0  0  0  0  0  0  0  0  0  0
   -0.9874   -2.6393   -1.4252 H   0  0  0  0  0  0  0  0  0  0  0  0
   -1.9413   -1.1932   -3.2341 H   0  0  0  0  0  0  0  0  0  0  0  0
   -3.4674    0.6802   -3.6141 H   0  0  0  0  0  0  0  0  0  0  0  0
   -3.6690    3.5933   -1.8067 H   0  0  0  0  0  0  0  0  0  0  0  0
   -5.0389    2.6305   -1.1792 H   0  0  0  0  0  0  0  0  0  0  0  0
   -4.6300    2.5859   -2.8952 H   0  0  0  0  0  0  0  0  0  0  0  0
   -2.2929    2.0417    1.6440 H   0  0  0  0  0  0  0  0  0  0  0  0
   -3.9523    2.2457    1.0695 H   0  0  0  0  0  0  0  0  0  0  0  0
   -2.6456    3.3079    0.4680 H   0  0  0  0  0  0  0  0  0  0  0  0
   -1.3399    0.1058    0.8200 H   0  0  0  0  0  0  0  0  0  0  0  0
   -0.1041   -6.4549   -0.0767 H   0  0  0  0  0  0  0  0  0  0  0  0
    1.5490   -6.6626    1.6951 H   0  0  0  0  0  0  0  0  0  0  0  0
    2.8088    1.8060    2.4953 H   0  0  0  0  0  0  0  0  0  0  0  0
    1.4656    1.4275    1.4646 H   0  0  0  0  0  0  0  0  0  0  0  0
    3.2103    0.8336   -0.3774 H   0  0  0  0  0  0  0  0  0  0  0  0
    4.4485    1.5165    0.6678 H   0  0  0  0  0  0  0  0  0  0  0  0
    4.6555    3.8421    0.7034 H   0  0  0  0  0  0  0  0  0  0  0  0
    3.1431    3.9340    1.6657 H   0  0  0  0  0  0  0  0  0  0  0  0
    3.2995    4.8478    0.1557 H   0  0  0  0  0  0  0  0  0  0  0  0
  1  2  1  0
  2  3  1  0
  3  4  1  0
  4  5  2  0
  5  6  1  0
  6  7  2  0
  7  8  1  0
  7  9  1  0
  9 10  1  0
  9 11  2  0
  2 12  2  0
 12 13  1  0
 13 14  2  0
 14 15  1  0
 15 16  2  0
 16 17  1  0
 17 18  2  0
 18 19  1  0
 19 20  2  3
 20 21  1  0
 21 22  1  0
 22 23  1  0
 23 24  1  0
 19  1  1  0
 11  4  1  0
 17 12  1  0
  1 25  1  0
  3 26  1  0
  5 27  1  0
  6 28  1  0
  8 29  1  0
  8 30  1  0
  8 31  1  0
 10 32  1  0
 10 33  1  0
 10 34  1  0
 11 35  1  0
 14 36  1  0
 15 37  1  0
 21 38  1  0
 21 39  1  0
 22 40  1  0
 22 41  1  0
 24 42  1  0
 24 43  1  0
 24 44  1  0
M  END
>  <ScrubInfo>  (2) 
{"isomerGroup": 0, "isomerId": 1, "confId": 0, "nr_conformers:": 1, "nr_isomers:": 9}

$$$$
_i2
     RDKit          3D

 44 46  0  0  0  0  0  0  0  0999 V2000
   -1.2958    0.3064    0.6890 N   0  0  0  0  0  0  0  0  0  0  0  0
   -2.3027   -0.6071    0.6275 C   0  0  0  0  0  0  0  0  0  0  0  0
   -3.3713   -0.2829    1.4117 N   0  0  0  0  0  0  0  0  0  0  0  0
   -4.6174   -1.0417    1.3179 C   0  0  0  0  0  0  0  0  0  0  0  0
   -5.6115   -0.5208    2.3588 C   0  0  0  0  0  0  0  0  0  0  0  0
   -5.8498    0.8737    2.1185 O   0  0  0  0  0  0  0  0  0  0  0  0
   -6.7820    1.4082    3.0503 C   0  0  0  0  0  0  0  0  0  0  0  0
   -2.2328   -1.6868   -0.0902 N   0  0  0  0  0  0  0  0  0  0  0  0
   -1.0497   -1.8650   -0.8394 C   0  0  0  0  0  0  0  0  0  0  0  0
   -1.0390   -2.9890   -1.5980 N   0  0  0  0  0  0  0  0  0  0  0  0
    0.0787   -3.1900   -2.3340 C   0  0  0  0  0  0  0  0  0  0  0  0
    1.1519   -2.3121   -2.3254 C   0  0  0  0  0  0  0  0  0  0  0  0
    1.1634   -1.1873   -1.5795 N   0  0  0  0  0  0  0  0  0  0  0  0
    0.0455   -0.9828   -0.8373 C   0  0  0  0  0  0  0  0  0  0  0  0
   -0.0855    0.2228    0.0423 C   0  0  0  0  0  0  0  0  0  0  0  0
    0.7763    1.1792    0.2803 N   0  0  0  0  0  0  0  0  0  0  0  0
    2.0441    1.1944   -0.3100 C   0  0  0  0  0  0  0  0  0  0  0  0
    2.2589    1.8921   -1.4968 C   0  0  0  0  0  0  0  0  0  0  0  0
    3.5349    1.9508   -2.0609 C   0  0  0  0  0  0  0  0  0  0  0  0
    4.6243    1.3232   -1.4373 C   0  0  0  0  0  0  0  0  0  0  0  0
    5.9850    1.4077   -2.0719 C   0  0  0  0  0  0  0  0  0  0  0  0
    4.4206    0.6375   -0.2229 C   0  0  0  0  0  0  0  0  0  0  0  0
    5.5521   -0.0431    0.4956 C   0  0  0  0  0  0  0  0  0  0  0  0
    3.1289    0.5890    0.3295 C   0  0  0  0  0  0  0  0  0  0  0  0
   -1.3645    1.0610    1.3547 H   0  0  0  0  0  0  0  0  0  0  0  0
   -3.5731    0.7120    1.4811 H   0  0  0  0  0  0  0  0  0  0  0  0
   -4.4321   -2.1073    1.4906 H   0  0  0  0  0  0  0  0  0  0  0  0
   -5.0366   -0.9118    0.3136 H   0  0  0  0  0  0  0  0  0  0  0  0
   -6.5540   -1.0735    2.2781 H   0  0  0  0  0  0  0  0  0  0  0  0
   -5.2034   -0.6473    3.3684 H   0  0  0  0  0  0  0  0  0  0  0  0
   -6.3977    1.3177    4.0708 H   0  0  0  0  0  0  0  0  0  0  0  0
   -6.9258    2.4679    2.8235 H   0  0  0  0  0  0  0  0  0  0  0  0
   -7.7459    0.8977    2.9629 H   0  0  0  0  0  0  0  0  0  0  0  0
    0.0886   -4.0890   -2.9404 H   0  0  0  0  0  0  0  0  0  0  0  0
    2.0379   -2.4934   -2.9239 H   0  0  0  0  0  0  0  0  0  0  0  0
    1.4265    2.3890   -1.9851 H   0  0  0  0  0  0  0  0  0  0  0  0
    3.6705    2.4947   -2.9926 H   0  0  0  0  0  0  0  0  0  0  0  0
    6.6791    1.9383   -1.4126 H   0  0  0  0  0  0  0  0  0  0  0  0
    6.3717    0.4050   -2.2795 H   0  0  0  0  0  0  0  0  0  0  0  0
    5.9521    1.9496   -3.0231 H   0  0  0  0  0  0  0  0  0  0  0  0
    5.2151   -0.5084    1.4280 H   0  0  0  0  0  0  0  0  0  0  0  0
    6.3307    0.6819    0.7532 H   0  0  0  0  0  0  0  0  0  0  0  0
    5.9799   -0.8322   -0.1308 H   0  0  0  0  0  0  0  0  0  0  0  0
    2.9537    0.0724    1.2694 H   0  0  0  0  0  0  0  0  0  0  0  0
  1  2  1  0
  2  3  1  0
  3  4  1  0
  4  5  1  0
  5  6  1  0
  6  7  1  0
  2  8  2  0
  8  9  1  0
  9 10  2  0
 10 11  1  0
 11 12  2  0
 12 13  1  0
 13 14  2  0
 14 15  1  0
 15 16  2  3
 16 17  1  0
 17 18  2  0
 18 19  1  0
 19 20  2  0
 20 21  1  0
 20 22  1  0
 22 23  1  0
 22 24  2  0
 15  1  1  0
 24 17  1  0
 14  9  1  0
  1 25  1  0
  3 26  1  0
  4 27  1  0
  4 28  1  0
  5 29  1  0
  5 30  1  0
  7 31  1  0
  7 32  1  0
  7 33  1  0
 11 34  1  0
 12 35  1  0
 18 36  1  0
 19 37  1  0
 21 38  1  0
 21 39  1  0
 21 40  1  0
 23 41  1  0
 23 42  1  0
 23 43  1  0
 24 44  1  0
M  END
>  <ScrubInfo>  (3) 
{"isomerGroup": 0, "isomerId": 2, "confId": 0, "nr_conformers:": 1, "nr_isomers:": 9}

$$$$
_i3
     RDKit          3D

 44 46  0  0  0  0  0  0  0  0999 V2000
    2.7514   -0.0058    0.9690 N   0  0  0  0  0  0  0  0  0  0  0  0
    1.9683   -0.5976    0.0234 C   0  0  0  0  0  0  0  0  0  0  0  0
    2.3708   -1.3521   -0.9350 N   0  0  0  0  0  0  0  0  0  0  0  0
    3.7854   -1.6662   -1.0972 C   0  0  0  0  0  0  0  0  0  0  0  0
    4.4633   -0.6348   -2.0021 C   0  0  0  0  0  0  0  0  0  0  0  0
    5.8673   -0.8793   -2.1119 O   0  0  0  0  0  0  0  0  0  0  0  0
    6.6200   -0.2798   -1.0671 C   0  0  0  0  0  0  0  0  0  0  0  0
    0.6066   -0.4156    0.0135 N   0  0  0  0  0  0  0  0  0  0  0  0
    0.0216    0.3223    0.9131 C   0  0  0  0  0  0  0  0  0  0  0  0
   -1.3405    0.5618    0.9826 N   0  0  0  0  0  0  0  0  0  0  0  0
   -2.3955    0.1077    0.1738 C   0  0  0  0  0  0  0  0  0  0  0  0
   -2.2383   -0.7339   -0.9262 C   0  0  0  0  0  0  0  0  0  0  0  0
   -3.3383   -1.1443   -1.6886 C   0  0  0  0  0  0  0  0  0  0  0  0
   -4.6351   -0.7226   -1.3724 C   0  0  0  0  0  0  0  0  0  0  0  0
   -5.7893   -1.1861   -2.2166 C   0  0  0  0  0  0  0  0  0  0  0  0
   -4.8210    0.1268   -0.2690 C   0  0  0  0  0  0  0  0  0  0  0  0
   -6.1883    0.6156    0.1228 C   0  0  0  0  0  0  0  0  0  0  0  0
   -3.7014    0.5279    0.4847 C   0  0  0  0  0  0  0  0  0  0  0  0
    0.8221    0.9934    1.9817 C   0  0  0  0  0  0  0  0  0  0  0  0
    0.1668    1.7557    2.9027 N   0  0  0  0  0  0  0  0  0  0  0  0
    0.9838    2.3161    3.8221 C   0  0  0  0  0  0  0  0  0  0  0  0
    2.3604    2.1240    3.8140 C   0  0  0  0  0  0  0  0  0  0  0  0
    2.9940    1.3609    2.8860 N   0  0  0  0  0  0  0  0  0  0  0  0
    2.1957    0.7882    1.9558 C   0  0  0  0  0  0  0  0  0  0  0  0
    3.7465   -0.1254    1.0057 H   0  0  0  0  0  0  0  0  0  0  0  0
    3.8710   -2.6548   -1.5646 H   0  0  0  0  0  0  0  0  0  0  0  0
    4.3057   -1.7741   -0.1397 H   0  0  0  0  0  0  0  0  0  0  0  0
    4.2792    0.3909   -1.6601 H   0  0  0  0  0  0  0  0  0  0  0  0
    4.0411   -0.7119   -3.0104 H   0  0  0  0  0  0  0  0  0  0  0  0
    6.5051    0.8081   -1.0897 H   0  0  0  0  0  0  0  0  0  0  0  0
    6.3177   -0.6688   -0.0910 H   0  0  0  0  0  0  0  0  0  0  0  0
    7.6752   -0.5196   -1.2237 H   0  0  0  0  0  0  0  0  0  0  0  0
   -1.6231    1.1621    1.7532 H   0  0  0  0  0  0  0  0  0  0  0  0
   -1.2587   -1.0962   -1.2234 H   0  0  0  0  0  0  0  0  0  0  0  0
   -3.1626   -1.8021   -2.5374 H   0  0  0  0  0  0  0  0  0  0  0  0
   -6.2966   -0.3292   -2.6710 H   0  0  0  0  0  0  0  0  0  0  0  0
   -5.4562   -1.8405   -3.0292 H   0  0  0  0  0  0  0  0  0  0  0  0
   -6.5018   -1.7528   -1.6089 H   0  0  0  0  0  0  0  0  0  0  0  0
   -6.1470    1.2658    1.0031 H   0  0  0  0  0  0  0  0  0  0  0  0
   -6.6334    1.1943   -0.6928 H   0  0  0  0  0  0  0  0  0  0  0  0
   -6.8384   -0.2299    0.3687 H   0  0  0  0  0  0  0  0  0  0  0  0
   -3.8563    1.1864    1.3371 H   0  0  0  0  0  0  0  0  0  0  0  0
    0.5051    2.9316    4.5766 H   0  0  0  0  0  0  0  0  0  0  0  0
    2.9977    2.5839    4.5624 H   0  0  0  0  0  0  0  0  0  0  0  0
  1  2  1  0
  2  3  2  3
  3  4  1  0
  4  5  1  0
  5  6  1  0
  6  7  1  0
  2  8  1  0
  8  9  2  0
  9 10  1  0
 10 11  1  0
 11 12  2  0
 12 13  1  0
 13 14  2  0
 14 15  1  0
 14 16  1  0
 16 17  1  0
 16 18  2  0
  9 19  1  0
 19 20  2  0
 20 21  1  0
 21 22  2  0
 22 23  1  0
 23 24  2  0
 24  1  1  0
 18 11  1  0
 24 19  1  0
  1 25  1  0
  4 26  1  0
  4 27  1  0
  5 28  1  0
  5 29  1  0
  7 30  1  0
  7 31  1  0
  7 32  1  0
 10 33  1  0
 12 34  1  0
 13 35  1  0
 15 36  1  0
 15 37  1  0
 15 38  1  0
 17 39  1  0
 17 40  1  0
 17 41  1  0
 18 42  1  0
 21 43  1  0
 22 44  1  0
M  END
>  <ScrubInfo>  (4) 
{"isomerGroup": 0, "isomerId": 3, "confId": 0, "nr_conformers:": 1, "nr_isomers:": 9}

$$$$
_i4
     RDKit          3D

 44 46  0  0  0  0  0  0  0  0999 V2000
    2.9636    3.5762   -0.5011 N   0  0  0  0  0  0  0  0  0  0  0  0
    2.2990    4.5293   -1.2239 C   0  0  0  0  0  0  0  0  0  0  0  0
    1.0045    4.3736   -1.5479 C   0  0  0  0  0  0  0  0  0  0  0  0
    0.2472    3.2738   -1.1895 N   0  0  0  0  0  0  0  0  0  0  0  0
    0.8626    2.3387   -0.5060 C   0  0  0  0  0  0  0  0  0  0  0  0
    0.0985    1.1175   -0.0669 C   0  0  0  0  0  0  0  0  0  0  0  0
   -1.2388    1.1097   -0.4041 N   0  0  0  0  0  0  0  0  0  0  0  0
   -2.2209    0.1283   -0.2004 C   0  0  0  0  0  0  0  0  0  0  0  0
   -1.9868   -1.0972    0.4222 C   0  0  0  0  0  0  0  0  0  0  0  0
   -3.0182   -2.0257    0.6040 C   0  0  0  0  0  0  0  0  0  0  0  0
   -4.3212   -1.7530    0.1706 C   0  0  0  0  0  0  0  0  0  0  0  0
   -5.4007   -2.7770    0.3850 C   0  0  0  0  0  0  0  0  0  0  0  0
   -4.5843   -0.5223   -0.4539 C   0  0  0  0  0  0  0  0  0  0  0  0
   -5.9632   -0.1679   -0.9388 C   0  0  0  0  0  0  0  0  0  0  0  0
   -3.5331    0.3979   -0.6278 C   0  0  0  0  0  0  0  0  0  0  0  0
    0.7556    0.2143    0.5804 N   0  0  0  0  0  0  0  0  0  0  0  0
    2.0920    0.3658    0.8277 C   0  0  0  0  0  0  0  0  0  0  0  0
    2.6258   -0.6501    1.4013 N   0  0  0  0  0  0  0  0  0  0  0  0
    4.0530   -0.6305    1.7252 C   0  0  0  0  0  0  0  0  0  0  0  0
    4.9317   -0.9420    0.5044 C   0  0  0  0  0  0  0  0  0  0  0  0
    4.5964   -2.1421   -0.1972 O   0  0  0  0  0  0  0  0  0  0  0  0
    4.7021   -3.3158    0.5937 C   0  0  0  0  0  0  0  0  0  0  0  0
    2.8656    1.4601    0.5348 N   0  0  0  0  0  0  0  0  0  0  0  0
    2.3181    2.4285   -0.1160 C   0  0  0  0  0  0  0  0  0  0  0  0
    3.9470    3.6888   -0.2932 H   0  0  0  0  0  0  0  0  0  0  0  0
    2.8786    5.3994   -1.5135 H   0  0  0  0  0  0  0  0  0  0  0  0
    0.4894    5.1386   -2.1242 H   0  0  0  0  0  0  0  0  0  0  0  0
   -1.5427    1.9254   -0.9301 H   0  0  0  0  0  0  0  0  0  0  0  0
   -0.9980   -1.3692    0.7802 H   0  0  0  0  0  0  0  0  0  0  0  0
   -2.7851   -2.9698    1.0923 H   0  0  0  0  0  0  0  0  0  0  0  0
   -5.8250   -3.0894   -0.5744 H   0  0  0  0  0  0  0  0  0  0  0  0
   -6.1931   -2.3672    1.0193 H   0  0  0  0  0  0  0  0  0  0  0  0
   -5.0124   -3.6733    0.8805 H   0  0  0  0  0  0  0  0  0  0  0  0
   -5.9862    0.8265   -1.3972 H   0  0  0  0  0  0  0  0  0  0  0  0
   -6.2969   -0.8861   -1.6943 H   0  0  0  0  0  0  0  0  0  0  0  0
   -6.6701   -0.1610   -0.1030 H   0  0  0  0  0  0  0  0  0  0  0  0
   -3.7482    1.3498   -1.1098 H   0  0  0  0  0  0  0  0  0  0  0  0
    4.3563    0.3206    2.1798 H   0  0  0  0  0  0  0  0  0  0  0  0
    4.2194   -1.3887    2.4984 H   0  0  0  0  0  0  0  0  0  0  0  0
    4.8594   -0.1297   -0.2257 H   0  0  0  0  0  0  0  0  0  0  0  0
    5.9835   -0.9947    0.8098 H   0  0  0  0  0  0  0  0  0  0  0  0
    4.6024   -4.1817   -0.0668 H   0  0  0  0  0  0  0  0  0  0  0  0
    3.8969   -3.3610    1.3319 H   0  0  0  0  0  0  0  0  0  0  0  0
    5.6767   -3.3674    1.0884 H   0  0  0  0  0  0  0  0  0  0  0  0
  1  2  1  0
  2  3  2  0
  3  4  1  0
  4  5  2  0
  5  6  1  0
  6  7  1  0
  7  8  1  0
  8  9  2  0
  9 10  1  0
 10 11  2  0
 11 12  1  0
 11 13  1  0
 13 14  1  0
 13 15  2  0
  6 16  2  0
 16 17  1  0
 17 18  2  3
 18 19  1  0
 19 20  1  0
 20 21  1  0
 21 22  1  0
 17 23  1  0
 23 24  2  0
 24  1  1  0
 24  5  1  0
 15  8  1  0
  1 25  1  0
  2 26  1  0
  3 27  1  0
  7 28  1  0
  9 29  1  0
 10 30  1  0
 12 31  1  0
 12 32  1  0
 12 33  1  0
 14 34  1  0
 14 35  1  0
 14 36  1  0
 15 37  1  0
 19 38  1  0
 19 39  1  0
 20 40  1  0
 20 41  1  0
 22 42  1  0
 22 43  1  0
 22 44  1  0
M  END
>  <ScrubInfo>  (5) 
{"isomerGroup": 0, "isomerId": 4, "confId": 0, "nr_conformers:": 1, "nr_isomers:": 9}

$$$$
_i5
     RDKit          3D

 44 46  0  0  0  0  0  0  0  0999 V2000
   -2.3816   -1.7171    0.5453 N   0  0  0  0  0  0  0  0  0  0  0  0
   -2.3929   -1.3807   -0.7638 C   0  0  0  0  0  0  0  0  0  0  0  0
   -3.6022   -1.4657   -1.3868 N   0  0  0  0  0  0  0  0  0  0  0  0
   -4.8150   -0.8648   -0.8412 C   0  0  0  0  0  0  0  0  0  0  0  0
   -4.7202    0.6627   -0.7805 C   0  0  0  0  0  0  0  0  0  0  0  0
   -5.9588    1.1858   -0.2966 O   0  0  0  0  0  0  0  0  0  0  0  0
   -5.9314    2.6062   -0.2255 C   0  0  0  0  0  0  0  0  0  0  0  0
   -1.3655   -0.9976   -1.4518 N   0  0  0  0  0  0  0  0  0  0  0  0
   -0.1349   -0.8841   -0.8197 C   0  0  0  0  0  0  0  0  0  0  0  0
    0.7623   -0.3089   -1.5656 N   0  0  0  0  0  0  0  0  0  0  0  0
    2.0645   -0.0715   -1.1188 C   0  0  0  0  0  0  0  0  0  0  0  0
    3.0855   -0.9694   -1.4232 C   0  0  0  0  0  0  0  0  0  0  0  0
    4.3970   -0.7127   -1.0184 C   0  0  0  0  0  0  0  0  0  0  0  0
    4.7136    0.4591   -0.3137 C   0  0  0  0  0  0  0  0  0  0  0  0
    6.1374    0.7060    0.1021 C   0  0  0  0  0  0  0  0  0  0  0  0
    3.6921    1.3870   -0.0273 C   0  0  0  0  0  0  0  0  0  0  0  0
    3.9762    2.6678    0.7066 C   0  0  0  0  0  0  0  0  0  0  0  0
    2.3779    1.1108   -0.4426 C   0  0  0  0  0  0  0  0  0  0  0  0
    0.0090   -1.4081    0.5822 C   0  0  0  0  0  0  0  0  0  0  0  0
    1.2241   -1.4903    1.1856 N   0  0  0  0  0  0  0  0  0  0  0  0
    1.2181   -1.9992    2.4349 C   0  0  0  0  0  0  0  0  0  0  0  0
    0.0538   -2.4149    3.0583 C   0  0  0  0  0  0  0  0  0  0  0  0
   -1.1601   -2.3397    2.4619 N   0  0  0  0  0  0  0  0  0  0  0  0
   -1.1670   -1.8282    1.2055 C   0  0  0  0  0  0  0  0  0  0  0  0
   -3.1603   -2.1737    0.9903 H   0  0  0  0  0  0  0  0  0  0  0  0
   -3.4793   -1.2192   -2.3686 H   0  0  0  0  0  0  0  0  0  0  0  0
   -5.6628   -1.1495   -1.4756 H   0  0  0  0  0  0  0  0  0  0  0  0
   -5.0440   -1.2698    0.1513 H   0  0  0  0  0  0  0  0  0  0  0  0
   -4.5166    1.0661   -1.7796 H   0  0  0  0  0  0  0  0  0  0  0  0
   -3.9093    0.9683   -0.1090 H   0  0  0  0  0  0  0  0  0  0  0  0
   -5.1503    2.9400    0.4643 H   0  0  0  0  0  0  0  0  0  0  0  0
   -5.7675    3.0362   -1.2183 H   0  0  0  0  0  0  0  0  0  0  0  0
   -6.8990    2.9506    0.1490 H   0  0  0  0  0  0  0  0  0  0  0  0
    2.8542   -1.8737   -1.9779 H   0  0  0  0  0  0  0  0  0  0  0  0
    5.1708   -1.4357   -1.2642 H   0  0  0  0  0  0  0  0  0  0  0  0
    6.5282    1.5995   -0.3947 H   0  0  0  0  0  0  0  0  0  0  0  0
    6.7865   -0.1341   -0.1675 H   0  0  0  0  0  0  0  0  0  0  0  0
    6.2013    0.8331    1.1873 H   0  0  0  0  0  0  0  0  0  0  0  0
    3.0703    3.2712    0.8289 H   0  0  0  0  0  0  0  0  0  0  0  0
    4.7011    3.2718    0.1517 H   0  0  0  0  0  0  0  0  0  0  0  0
    4.3669    2.4543    1.7064 H   0  0  0  0  0  0  0  0  0  0  0  0
    1.5793    1.8209   -0.2451 H   0  0  0  0  0  0  0  0  0  0  0  0
    2.1830   -2.0657    2.9255 H   0  0  0  0  0  0  0  0  0  0  0  0
    0.0654   -2.8232    4.0631 H   0  0  0  0  0  0  0  0  0  0  0  0
  1  2  1  0
  2  3  1  0
  3  4  1  0
  4  5  1  0
  5  6  1  0
  6  7  1  0
  2  8  2  0
  8  9  1  0
  9 10  2  3
 10 11  1  0
 11 12  2  0
 12 13  1  0
 13 14  2  0
 14 15  1  0
 14 16  1  0
 16 17  1  0
 16 18  2  0
  9 19  1  0
 19 20  2  0
 20 21  1  0
 21 22  2  0
 22 23  1  0
 23 24  2  0
 24  1  1  0
 18 11  1  0
 24 19  1  0
  1 25  1  0
  3 26  1  0
  4 27  1  0
  4 28  1  0
  5 29  1  0
  5 30  1  0
  7 31  1  0
  7 32  1  0
  7 33  1  0
 12 34  1  0
 13 35  1  0
 15 36  1  0
 15 37  1  0
 15 38  1  0
 17 39  1  0
 17 40  1  0
 17 41  1  0
 18 42  1  0
 21 43  1  0
 22 44  1  0
M  END
>  <ScrubInfo>  (6) 
{"isomerGroup": 0, "isomerId": 5, "confId": 0, "nr_conformers:": 1, "nr_isomers:": 9}

$$$$
_i6
     RDKit          3D

 44 46  0  0  0  0  0  0  0  0999 V2000
    2.6061    4.1114   -0.4285 N   0  0  0  0  0  0  0  0  0  0  0  0
    2.1267    5.0988   -1.2451 C   0  0  0  0  0  0  0  0  0  0  0  0
    0.9375    4.9704   -1.8556 C   0  0  0  0  0  0  0  0  0  0  0  0
    0.1191    3.8670   -1.7194 N   0  0  0  0  0  0  0  0  0  0  0  0
    0.5445    2.9052   -0.9383 C   0  0  0  0  0  0  0  0  0  0  0  0
   -0.2208    1.6426   -0.6894 C   0  0  0  0  0  0  0  0  0  0  0  0
   -1.3470    1.4669   -1.3141 N   0  0  0  0  0  0  0  0  0  0  0  0
   -2.0695    0.2872   -1.0895 C   0  0  0  0  0  0  0  0  0  0  0  0
   -1.8423   -0.8422   -1.8738 C   0  0  0  0  0  0  0  0  0  0  0  0
   -2.5829   -2.0076   -1.6667 C   0  0  0  0  0  0  0  0  0  0  0  0
   -3.5754   -2.0600   -0.6759 C   0  0  0  0  0  0  0  0  0  0  0  0
   -4.3561   -3.3305   -0.4819 C   0  0  0  0  0  0  0  0  0  0  0  0
   -3.8257   -0.9160    0.1082 C   0  0  0  0  0  0  0  0  0  0  0  0
   -4.8842   -0.9101    1.1758 C   0  0  0  0  0  0  0  0  0  0  0  0
   -3.0692    0.2476   -0.1143 C   0  0  0  0  0  0  0  0  0  0  0  0
    0.2819    0.7110    0.1793 N   0  0  0  0  0  0  0  0  0  0  0  0
    1.4280    0.9159    0.7508 C   0  0  0  0  0  0  0  0  0  0  0  0
    1.8509   -0.0610    1.6034 N   0  0  0  0  0  0  0  0  0  0  0  0
    3.2527   -0.3050    1.8974 C   0  0  0  0  0  0  0  0  0  0  0  0
    3.9295   -1.0657    0.7501 C   0  0  0  0  0  0  0  0  0  0  0  0
    3.3022   -2.3284    0.4947 O   0  0  0  0  0  0  0  0  0  0  0  0
    3.7021   -3.3499    1.3978 C   0  0  0  0  0  0  0  0  0  0  0  0
    2.2298    2.0106    0.5666 N   0  0  0  0  0  0  0  0  0  0  0  0
    1.8632    2.9779   -0.2079 C   0  0  0  0  0  0  0  0  0  0  0  0
    3.4861    4.2328    0.0532 H   0  0  0  0  0  0  0  0  0  0  0  0
    2.7570    5.9734   -1.3621 H   0  0  0  0  0  0  0  0  0  0  0  0
    0.5622    5.7589   -2.5031 H   0  0  0  0  0  0  0  0  0  0  0  0
   -1.0824   -0.8128   -2.6488 H   0  0  0  0  0  0  0  0  0  0  0  0
   -2.3787   -2.8748   -2.2901 H   0  0  0  0  0  0  0  0  0  0  0  0
   -4.0113   -4.1214   -1.1565 H   0  0  0  0  0  0  0  0  0  0  0  0
   -5.4173   -3.1593   -0.6882 H   0  0  0  0  0  0  0  0  0  0  0  0
   -4.2371   -3.6983    0.5421 H   0  0  0  0  0  0  0  0  0  0  0  0
   -4.6555   -1.6577    1.9418 H   0  0  0  0  0  0  0  0  0  0  0  0
   -4.9484    0.0632    1.6739 H   0  0  0  0  0  0  0  0  0  0  0  0
   -5.8657   -1.1215    0.7399 H   0  0  0  0  0  0  0  0  0  0  0  0
   -3.2522    1.1425    0.4750 H   0  0  0  0  0  0  0  0  0  0  0  0
    1.3167   -0.9143    1.4568 H   0  0  0  0  0  0  0  0  0  0  0  0
    3.7833    0.6330    2.0941 H   0  0  0  0  0  0  0  0  0  0  0  0
    3.3010   -0.8934    2.8188 H   0  0  0  0  0  0  0  0  0  0  0  0
    3.8534   -0.4837   -0.1749 H   0  0  0  0  0  0  0  0  0  0  0  0
    4.9964   -1.2097    0.9561 H   0  0  0  0  0  0  0  0  0  0  0  0
    3.3877   -3.1166    2.4183 H   0  0  0  0  0  0  0  0  0  0  0  0
    4.7860   -3.4947    1.3597 H   0  0  0  0  0  0  0  0  0  0  0  0
    3.2176   -4.2821    1.0946 H   0  0  0  0  0  0  0  0  0  0  0  0
  1  2  1  0
  2  3  2  0
  3  4  1  0
  4  5  2  0
  5  6  1  0
  6  7  2  3
  7  8  1  0
  8  9  2  0
  9 10  1  0
 10 11  2  0
 11 12  1  0
 11 13  1  0
 13 14  1  0
 13 15  2  0
  6 16  1  0
 16 17  2  0
 17 18  1  0
 18 19  1  0
 19 20  1  0
 20 21  1  0
 21 22  1  0
 17 23  1  0
 23 24  2  0
 24  1  1  0
 24  5  1  0
 15  8  1  0
  1 25  1  0
  2 26  1  0
  3 27  1  0
  9 28  1  0
 10 29  1  0
 12 30  1  0
 12 31  1  0
 12 32  1  0
 14 33  1  0
 14 34  1  0
 14 35  1  0
 15 36  1  0
 18 37  1  0
 19 38  1  0
 19 39  1  0
 20 40  1  0
 20 41  1  0
 22 42  1  0
 22 43  1  0
 22 44  1  0
M  END
>  <ScrubInfo>  (7) 
{"isomerGroup": 0, "isomerId": 6, "confId": 0, "nr_conformers:": 1, "nr_isomers:": 9}

$$$$
_i7
     RDKit          3D

 44 46  0  0  0  0  0  0  0  0999 V2000
    2.4575   -0.6315    0.6381 N   0  0  0  0  0  0  0  0  0  0  0  0
    1.4376   -0.6037   -0.2710 C   0  0  0  0  0  0  0  0  0  0  0  0
    1.5141   -0.6890   -1.5548 N   0  0  0  0  0  0  0  0  0  0  0  0
    2.8198   -0.8517   -2.1940 C   0  0  0  0  0  0  0  0  0  0  0  0
    3.4420    0.5116   -2.5054 C   0  0  0  0  0  0  0  0  0  0  0  0
    4.7286    0.3745   -3.1110 O   0  0  0  0  0  0  0  0  0  0  0  0
    5.7772    0.2252   -2.1640 C   0  0  0  0  0  0  0  0  0  0  0  0
    0.2011   -0.4562    0.2953 N   0  0  0  0  0  0  0  0  0  0  0  0
   -0.1508   -0.3366    1.6263 C   0  0  0  0  0  0  0  0  0  0  0  0
   -1.3578   -0.1979    2.0975 N   0  0  0  0  0  0  0  0  0  0  0  0
   -2.4383   -0.1606    1.2082 C   0  0  0  0  0  0  0  0  0  0  0  0
   -3.1019   -1.3341    0.8584 C   0  0  0  0  0  0  0  0  0  0  0  0
   -4.1683   -1.2991   -0.0414 C   0  0  0  0  0  0  0  0  0  0  0  0
   -4.5951   -0.0845   -0.6002 C   0  0  0  0  0  0  0  0  0  0  0  0
   -5.7517   -0.0830   -1.5621 C   0  0  0  0  0  0  0  0  0  0  0  0
   -3.9433    1.1098   -0.2325 C   0  0  0  0  0  0  0  0  0  0  0  0
   -4.3714    2.4415   -0.7847 C   0  0  0  0  0  0  0  0  0  0  0  0
   -2.8716    1.0550    0.6742 C   0  0  0  0  0  0  0  0  0  0  0  0
    1.0010   -0.3750    2.5812 C   0  0  0  0  0  0  0  0  0  0  0  0
    0.7746   -0.2657    3.9167 N   0  0  0  0  0  0  0  0  0  0  0  0
    1.8855   -0.3130    4.6802 C   0  0  0  0  0  0  0  0  0  0  0  0
    3.1540   -0.4605    4.1382 C   0  0  0  0  0  0  0  0  0  0  0  0
    3.3779   -0.5686    2.8038 N   0  0  0  0  0  0  0  0  0  0  0  0
    2.2751   -0.5249    2.0173 C   0  0  0  0  0  0  0  0  0  0  0  0
    3.4203   -0.7409    0.3660 H   0  0  0  0  0  0  0  0  0  0  0  0
    2.6793   -1.3991   -3.1339 H   0  0  0  0  0  0  0  0  0  0  0  0
    3.4955   -1.4842   -1.6083 H   0  0  0  0  0  0  0  0  0  0  0  0
    3.5042    1.1445   -1.6120 H   0  0  0  0  0  0  0  0  0  0  0  0
    2.8028    1.0398   -3.2219 H   0  0  0  0  0  0  0  0  0  0  0  0
    5.8373    1.1065   -1.5183 H   0  0  0  0  0  0  0  0  0  0  0  0
    6.7202    0.1308   -2.7093 H   0  0  0  0  0  0  0  0  0  0  0  0
    5.6360   -0.6745   -1.5592 H   0  0  0  0  0  0  0  0  0  0  0  0
   -0.5534   -0.4370   -0.3796 H   0  0  0  0  0  0  0  0  0  0  0  0
   -2.7870   -2.2792    1.2918 H   0  0  0  0  0  0  0  0  0  0  0  0
   -4.6683   -2.2304   -0.2986 H   0  0  0  0  0  0  0  0  0  0  0  0
   -5.4523    0.3581   -2.5181 H   0  0  0  0  0  0  0  0  0  0  0  0
   -6.1050   -1.0992   -1.7675 H   0  0  0  0  0  0  0  0  0  0  0  0
   -6.5910    0.4823   -1.1450 H   0  0  0  0  0  0  0  0  0  0  0  0
   -5.4160    2.6427   -0.5267 H   0  0  0  0  0  0  0  0  0  0  0  0
   -4.2536    2.4570   -1.8728 H   0  0  0  0  0  0  0  0  0  0  0  0
   -3.7684    3.2592   -0.3759 H   0  0  0  0  0  0  0  0  0  0  0  0
   -2.3619    1.9664    0.9783 H   0  0  0  0  0  0  0  0  0  0  0  0
    1.7309   -0.2285    5.7503 H   0  0  0  0  0  0  0  0  0  0  0  0
    4.0348   -0.4962    4.7707 H   0  0  0  0  0  0  0  0  0  0  0  0
  1  2  1  0
  2  3  2  3
  3  4  1  0
  4  5  1  0
  5  6  1  0
  6  7  1  0
  2  8  1  0
  8  9  1  0
  9 10  2  3
 10 11  1  0
 11 12  2  0
 12 13  1  0
 13 14  2  0
 14 15  1  0
 14 16  1  0
 16 17  1  0
 16 18  2  0
  9 19  1  0
 19 20  2  0
 20 21  1  0
 21 22  2  0
 22 23  1  0
 23 24  2  0
 24  1  1  0
 18 11  1  0
 24 19  1  0
  1 25  1  0
  4 26  1  0
  4 27  1  0
  5 28  1  0
  5 29  1  0
  7 30  1  0
  7 31  1  0
  7 32  1  0
  8 33  1  0
 12 34  1  0
 13 35  1  0
 15 36  1  0
 15 37  1  0
 15 38  1  0
 17 39  1  0
 17 40  1  0
 17 41  1  0
 18 42  1  0
 21 43  1  0
 22 44  1  0
M  END
>  <ScrubInfo>  (8) 
{"isomerGroup": 0, "isomerId": 7, "confId": 0, "nr_conformers:": 1, "nr_isomers:": 9}

$$$$
_i8
     RDKit          3D

 44 46  0  0  0  0  0  0  0  0999 V2000
    1.2479    2.8318   -0.8299 N   0  0  0  0  0  0  0  0  0  0  0  0
    0.0607    3.2368   -1.3703 C   0  0  0  0  0  0  0  0  0  0  0  0
   -1.0290    2.4580   -1.3008 C   0  0  0  0  0  0  0  0  0  0  0  0
   -1.0514    1.2192   -0.6988 N   0  0  0  0  0  0  0  0  0  0  0  0
    0.0561    0.7735   -0.1661 C   0  0  0  0  0  0  0  0  0  0  0  0
    0.1485   -0.5775    0.5234 C   0  0  0  0  0  0  0  0  0  0  0  0
   -0.7905   -1.4661    0.6913 N   0  0  0  0  0  0  0  0  0  0  0  0
   -2.0897   -1.2627    0.2179 C   0  0  0  0  0  0  0  0  0  0  0  0
   -2.4573   -1.7189   -1.0466 C   0  0  0  0  0  0  0  0  0  0  0  0
   -3.7683   -1.5616   -1.5004 C   0  0  0  0  0  0  0  0  0  0  0  0
   -4.7409   -0.9581   -0.6886 C   0  0  0  0  0  0  0  0  0  0  0  0
   -6.1432   -0.8049   -1.2096 C   0  0  0  0  0  0  0  0  0  0  0  0
   -4.3839   -0.5192    0.6022 C   0  0  0  0  0  0  0  0  0  0  0  0
   -5.3869    0.1234    1.5194 C   0  0  0  0  0  0  0  0  0  0  0  0
   -3.0592   -0.6854    1.0419 C   0  0  0  0  0  0  0  0  0  0  0  0
    1.4006   -0.8210    1.0002 N   0  0  0  0  0  0  0  0  0  0  0  0
    2.5044   -0.0364    0.9181 C   0  0  0  0  0  0  0  0  0  0  0  0
    3.6043   -0.4756    1.4289 N   0  0  0  0  0  0  0  0  0  0  0  0
    4.8126    0.3515    1.3316 C   0  0  0  0  0  0  0  0  0  0  0  0
    5.4979    0.1988   -0.0341 C   0  0  0  0  0  0  0  0  0  0  0  0
    5.8098   -1.1499   -0.3972 O   0  0  0  0  0  0  0  0  0  0  0  0
    6.7690   -1.7614    0.4516 C   0  0  0  0  0  0  0  0  0  0  0  0
    2.4686    1.1943    0.3142 N   0  0  0  0  0  0  0  0  0  0  0  0
    1.3534    1.6126   -0.2069 C   0  0  0  0  0  0  0  0  0  0  0  0
    2.0643    3.4242   -0.8973 H   0  0  0  0  0  0  0  0  0  0  0  0
    0.0587    4.2095   -1.8498 H   0  0  0  0  0  0  0  0  0  0  0  0
   -1.9701    2.7878   -1.7338 H   0  0  0  0  0  0  0  0  0  0  0  0
   -1.7188   -2.1971   -1.6826 H   0  0  0  0  0  0  0  0  0  0  0  0
   -4.0241   -1.9179   -2.4954 H   0  0  0  0  0  0  0  0  0  0  0  0
   -6.8419   -1.3796   -0.5934 H   0  0  0  0  0  0  0  0  0  0  0  0
   -6.2320   -1.1695   -2.2386 H   0  0  0  0  0  0  0  0  0  0  0  0
   -6.4370    0.2495   -1.2094 H   0  0  0  0  0  0  0  0  0  0  0  0
   -6.2186   -0.5611    1.7140 H   0  0  0  0  0  0  0  0  0  0  0  0
   -5.7699    1.0477    1.0755 H   0  0  0  0  0  0  0  0  0  0  0  0
   -4.9411    0.3816    2.4859 H   0  0  0  0  0  0  0  0  0  0  0  0
   -2.7692   -0.3614    2.0378 H   0  0  0  0  0  0  0  0  0  0  0  0
    1.5426   -1.7131    1.4519 H   0  0  0  0  0  0  0  0  0  0  0  0
    4.6048    1.4083    1.5386 H   0  0  0  0  0  0  0  0  0  0  0  0
    5.4924    0.0257    2.1262 H   0  0  0  0  0  0  0  0  0  0  0  0
    4.8465    0.5870   -0.8237 H   0  0  0  0  0  0  0  0  0  0  0  0
    6.4164    0.7970   -0.0607 H   0  0  0  0  0  0  0  0  0  0  0  0
    6.3393   -1.9734    1.4342 H   0  0  0  0  0  0  0  0  0  0  0  0
    7.6594   -1.1334    0.5522 H   0  0  0  0  0  0  0  0  0  0  0  0
    7.0651   -2.7127    0.0010 H   0  0  0  0  0  0  0  0  0  0  0  0
  1  2  1  0
  2  3  2  0
  3  4  1  0
  4  5  2  0
  5  6  1  0
  6  7  2  3
  7  8  1  0
  8  9  2  0
  9 10  1  0
 10 11  2  0
 11 12  1  0
 11 13  1  0
 13 14  1  0
 13 15  2  0
  6 16  1  0
 16 17  1  0
 17 18  2  3
 18 19  1  0
 19 20  1  0
 20 21  1  0
 21 22  1  0
 17 23  1  0
 23 24  2  0
 24  1  1  0
 24  5  1  0
 15  8  1  0
  1 25  1  0
  2 26  1  0
  3 27  1  0
  9 28  1  0
 10 29  1  0
 12 30  1  0
 12 31  1  0
 12 32  1  0
 14 33  1  0
 14 34  1  0
 14 35  1  0
 15 36  1  0
 16 37  1  0
 19 38  1  0
 19 39  1  0
 20 40  1  0
 20 41  1  0
 22 42  1  0
 22 43  1  0
 22 44  1  0
M  END
>  <ScrubInfo>  (9) 
{"isomerGroup": 0, "isomerId": 8, "confId": 0, "nr_conformers:": 1, "nr_isomers:": 9}

$$$$
