_i0
     RDKit          3D

 56 59  0  0  0  0  0  0  0  0999 V2000
    2.6585    0.3403    0.9007 C   0  0  0  0  0  0  0  0  0  0  0  0
    4.1436    0.6559    0.9896 N   0  0  0  0  0  4  0  0  0  0  0  0
    4.4898    1.8798    0.1370 C   0  0  0  0  0  0  0  0  0  0  0  0
    5.0319   -0.5196    0.5815 C   0  0  0  0  0  0  0  0  0  0  0  0
    2.2103   -0.6823    1.9677 C   0  0  0  0  0  0  0  0  0  0  0  0
    0.7698   -0.8129    2.0474 N   0  0  0  0  0  0  0  0  0  0  0  0
    0.1240   -1.2685    0.9080 C   0  0  0  0  0  0  0  0  0  0  0  0
   -1.0556   -0.6801    0.6774 N   0  0  0  0  0  0  0  0  0  0  0  0
    0.7320   -2.1589    0.1133 N   0  0  0  0  0  0  0  0  0  0  0  0
   -1.8049   -1.0143   -0.4087 C   0  0  0  0  0  0  0  0  0  0  0  0
   -0.0250   -2.4970   -0.9445 C   0  0  0  0  0  0  0  0  0  0  0  0
   -3.0245   -0.3813   -0.6812 N   0  0  0  0  0  0  0  0  0  0  0  0
   -1.2647   -1.9769   -1.2703 C   0  0  0  0  0  0  0  0  0  0  0  0
    0.2595   -3.4210   -1.9146 N   0  0  0  0  0  0  0  0  0  0  0  0
   -3.8532    0.4446    0.1112 C   0  0  0  0  0  0  0  0  0  0  0  0
   -1.6142   -2.6281   -2.4714 C   0  0  0  0  0  0  0  0  0  0  0  0
   -0.6806   -3.4924   -2.8812 N   0  0  0  0  0  0  0  0  0  0  0  0
    1.4134   -4.2814   -1.9907 C   0  0  0  0  0  0  0  0  0  0  0  0
   -3.7128    0.5047    1.5049 C   0  0  0  0  0  0  0  0  0  0  0  0
   -4.8142    1.2882   -0.5109 C   0  0  0  0  0  0  0  0  0  0  0  0
   -4.5228    1.3299    2.2822 C   0  0  0  0  0  0  0  0  0  0  0  0
   -4.9642    1.2859   -2.0150 C   0  0  0  0  0  0  0  0  0  0  0  0
   -5.6593    2.1021    0.2853 C   0  0  0  0  0  0  0  0  0  0  0  0
   -5.4921    2.1191    1.6767 C   0  0  0  0  0  0  0  0  0  0  0  0
   -6.7293    2.9767   -0.3142 C   0  0  0  0  0  0  0  0  0  0  0  0
    5.9902    2.1719    0.2374 C   0  0  0  0  0  0  0  0  0  0  0  0
    6.7586    1.0368   -0.1731 O   0  0  0  0  0  0  0  0  0  0  0  0
    6.5057   -0.1030    0.6537 C   0  0  0  0  0  0  0  0  0  0  0  0
    2.1294    1.2875    1.0581 H   0  0  0  0  0  0  0  0  0  0  0  0
    2.4604   -0.0048   -0.1196 H   0  0  0  0  0  0  0  0  0  0  0  0
    4.3632    0.8979    1.9652 H   0  0  0  0  0  0  0  0  0  0  0  0
    3.8978    2.7200    0.5120 H   0  0  0  0  0  0  0  0  0  0  0  0
    4.2015    1.6366   -0.8914 H   0  0  0  0  0  0  0  0  0  0  0  0
    4.7460   -0.7900   -0.4405 H   0  0  0  0  0  0  0  0  0  0  0  0
    4.8323   -1.3463    1.2674 H   0  0  0  0  0  0  0  0  0  0  0  0
    2.5686   -0.3515    2.9497 H   0  0  0  0  0  0  0  0  0  0  0  0
    2.6702   -1.6611    1.7899 H   0  0  0  0  0  0  0  0  0  0  0  0
    0.2314   -0.0172    2.3828 H   0  0  0  0  0  0  0  0  0  0  0  0
   -3.4723   -0.6923   -1.5324 H   0  0  0  0  0  0  0  0  0  0  0  0
   -2.5083   -2.5099   -3.0705 H   0  0  0  0  0  0  0  0  0  0  0  0
    1.0695   -5.3187   -2.0048 H   0  0  0  0  0  0  0  0  0  0  0  0
    2.0585   -4.1175   -1.1246 H   0  0  0  0  0  0  0  0  0  0  0  0
    1.9577   -4.0459   -2.9087 H   0  0  0  0  0  0  0  0  0  0  0  0
   -2.9927   -0.1249    2.0181 H   0  0  0  0  0  0  0  0  0  0  0  0
   -4.4075    1.3432    3.3626 H   0  0  0  0  0  0  0  0  0  0  0  0
   -3.9865    1.2440   -2.5068 H   0  0  0  0  0  0  0  0  0  0  0  0
   -5.5636    0.4251   -2.3270 H   0  0  0  0  0  0  0  0  0  0  0  0
   -5.4404    2.1958   -2.3902 H   0  0  0  0  0  0  0  0  0  0  0  0
   -6.1249    2.7471    2.3010 H   0  0  0  0  0  0  0  0  0  0  0  0
   -7.3785    3.4043    0.4576 H   0  0  0  0  0  0  0  0  0  0  0  0
   -6.2748    3.8062   -0.8649 H   0  0  0  0  0  0  0  0  0  0  0  0
   -7.3708    2.3946   -0.9836 H   0  0  0  0  0  0  0  0  0  0  0  0
    6.2492    3.0060   -0.4221 H   0  0  0  0  0  0  0  0  0  0  0  0
    6.2733    2.4522    1.2587 H   0  0  0  0  0  0  0  0  0  0  0  0
    7.1381   -0.9213    0.2958 H   0  0  0  0  0  0  0  0  0  0  0  0
    6.8035    0.1233    1.6843 H   0  0  0  0  0  0  0  0  0  0  0  0
  1  2  1  0
  2  3  1  0
  2  4  1  0
  5  1  1  0
  6  5  1  0
  7  6  1  0
  8  7  2  0
  7  9  1  0
 10  8  1  0
  9 11  2  0
 12 10  1  0
 13 10  2  0
 11 13  1  0
 14 11  1  0
 15 12  1  0
 13 16  1  0
 17 14  1  0
 14 18  1  0
 19 15  2  0
 15 20  1  0
 16 17  2  0
 21 19  1  0
 20 22  1  0
 20 23  2  0
 24 21  2  0
 25 23  1  0
 23 24  1  0
  3 26  1  0
 26 27  1  0
 27 28  1  0
 28  4  1  0
  1 29  1  0
  1 30  1  0
  2 31  1  0
  3 32  1  0
  3 33  1  0
  4 34  1  0
  4 35  1  0
  5 36  1  0
  5 37  1  0
  6 38  1  0
 12 39  1  0
 16 40  1  0
 18 41  1  0
 18 42  1  0
 18 43  1  0
 19 44  1  0
 21 45  1  0
 22 46  1  0
 22 47  1  0
 22 48  1  0
 24 49  1  0
 25 50  1  0
 25 51  1  0
 25 52  1  0
 26 53  1  0
 26 54  1  0
 28 55  1  0
 28 56  1  0
M  CHG  1   2   1
M  END
>  <ScrubInfo>  (1) 
{"isomerGroup": 0, "isomerId": 0, "confId": 0, "nr_conformers:": 1, "nr_isomers:": 9}

$$$$
_i1
     RDKit          3D

 56 59  0  0  0  0  0  0  0  0999 V2000
   -5.6103   -5.6675    3.9658 N   0  0  0  0  0  0  0  0  0  0  0  0
   -5.7344   -6.4812    5.0790 C   0  0  0  0  0  0  0  0  0  0  0  0
   -6.7138   -7.4526    5.1435 N   0  0  0  0  0  0  0  0  0  0  0  0
   -6.5447   -8.8101    5.5265 C   0  0  0  0  0  0  0  0  0  0  0  0
   -5.2830   -9.4260    5.5062 C   0  0  0  0  0  0  0  0  0  0  0  0
   -5.1308  -10.7619    5.8682 C   0  0  0  0  0  0  0  0  0  0  0  0
   -6.2408  -11.5097    6.2430 C   0  0  0  0  0  0  0  0  0  0  0  0
   -7.5186  -10.9330    6.2653 C   0  0  0  0  0  0  0  0  0  0  0  0
   -8.6852  -11.7927    6.6769 C   0  0  0  0  0  0  0  0  0  0  0  0
   -7.6737   -9.5648    5.9342 C   0  0  0  0  0  0  0  0  0  0  0  0
   -9.0430   -8.9280    5.9790 C   0  0  0  0  0  0  0  0  0  0  0  0
   -4.8955   -6.2044    6.0859 C   0  0  0  0  0  0  0  0  0  0  0  0
   -4.6542   -6.6619    7.4599 C   0  0  0  0  0  0  0  0  0  0  0  0
   -3.6850   -6.0063    8.0485 N   0  0  0  0  0  0  0  0  0  0  0  0
   -3.1978   -5.1055    7.0890 N   0  0  0  0  0  0  0  0  0  0  0  0
   -2.3215   -4.0445    7.5224 C   0  0  0  0  0  0  0  0  0  0  0  0
   -3.9057   -5.1218    5.9002 C   0  0  0  0  0  0  0  0  0  0  0  0
   -3.7872   -4.3888    4.8431 N   0  0  0  0  0  0  0  0  0  0  0  0
   -4.6579   -4.6905    3.8231 C   0  0  0  0  0  0  0  0  0  0  0  0
   -4.5798   -4.0351    2.7025 N   0  0  0  0  0  0  0  0  0  0  0  0
   -3.4842   -3.0375    2.6431 C   0  0  0  0  0  0  0  0  0  0  0  0
   -3.5058   -2.3948    1.2508 C   0  0  0  0  0  0  0  0  0  0  0  0
   -4.9494   -2.1738    0.8489 N   0  0  0  0  0  4  0  0  0  0  0  0
   -5.5782   -0.9507    1.4915 C   0  0  0  0  0  0  0  0  0  0  0  0
   -7.0509   -0.8589    1.0775 C   0  0  0  0  0  0  0  0  0  0  0  0
   -7.1835   -0.8254   -0.3488 O   0  0  0  0  0  0  0  0  0  0  0  0
   -6.6528   -2.0090   -0.9566 C   0  0  0  0  0  0  0  0  0  0  0  0
   -5.1596   -2.1668   -0.6495 C   0  0  0  0  0  0  0  0  0  0  0  0
   -6.1457   -5.9204    3.1510 H   0  0  0  0  0  0  0  0  0  0  0  0
   -7.4247   -7.3828    4.4218 H   0  0  0  0  0  0  0  0  0  0  0  0
   -4.3975   -8.8855    5.1838 H   0  0  0  0  0  0  0  0  0  0  0  0
   -4.1472  -11.2247    5.8475 H   0  0  0  0  0  0  0  0  0  0  0  0
   -6.1034  -12.5549    6.5155 H   0  0  0  0  0  0  0  0  0  0  0  0
   -9.0325  -11.5048    7.6741 H   0  0  0  0  0  0  0  0  0  0  0  0
   -9.5061  -11.6978    5.9589 H   0  0  0  0  0  0  0  0  0  0  0  0
   -8.4108  -12.8527    6.7090 H   0  0  0  0  0  0  0  0  0  0  0  0
   -9.6657   -9.3625    6.7668 H   0  0  0  0  0  0  0  0  0  0  0  0
   -8.9856   -7.8589    6.2069 H   0  0  0  0  0  0  0  0  0  0  0  0
   -9.5444   -9.0587    5.0151 H   0  0  0  0  0  0  0  0  0  0  0  0
   -5.2622   -7.4541    7.9154 H   0  0  0  0  0  0  0  0  0  0  0  0
   -2.9050   -3.2037    7.9102 H   0  0  0  0  0  0  0  0  0  0  0  0
   -1.7037   -3.6862    6.6928 H   0  0  0  0  0  0  0  0  0  0  0  0
   -1.6491   -4.3941    8.3126 H   0  0  0  0  0  0  0  0  0  0  0  0
   -2.5045   -3.5033    2.8016 H   0  0  0  0  0  0  0  0  0  0  0  0
   -3.6374   -2.2584    3.3996 H   0  0  0  0  0  0  0  0  0  0  0  0
   -3.0772   -3.0918    0.5224 H   0  0  0  0  0  0  0  0  0  0  0  0
   -2.9698   -1.4419    1.2054 H   0  0  0  0  0  0  0  0  0  0  0  0
   -5.4188   -3.0078    1.2489 H   0  0  0  0  0  0  0  0  0  0  0  0
   -5.0136   -0.0832    1.1334 H   0  0  0  0  0  0  0  0  0  0  0  0
   -5.4818   -1.0450    2.5764 H   0  0  0  0  0  0  0  0  0  0  0  0
   -7.6278   -1.7024    1.4747 H   0  0  0  0  0  0  0  0  0  0  0  0
   -7.4896    0.0619    1.4741 H   0  0  0  0  0  0  0  0  0  0  0  0
   -6.8005   -1.9229   -2.0376 H   0  0  0  0  0  0  0  0  0  0  0  0
   -7.2225   -2.8792   -0.6100 H   0  0  0  0  0  0  0  0  0  0  0  0
   -4.7747   -3.1105   -1.0475 H   0  0  0  0  0  0  0  0  0  0  0  0
   -4.5821   -1.3236   -1.0432 H   0  0  0  0  0  0  0  0  0  0  0  0
  1  2  1  0
  2  3  1  0
  3  4  1  0
  4  5  2  0
  5  6  1  0
  6  7  2  0
  7  8  1  0
  8  9  1  0
  8 10  2  0
 10 11  1  0
  2 12  2  0
 12 13  1  0
 13 14  2  0
 14 15  1  0
 15 16  1  0
 15 17  1  0
 17 18  2  0
 18 19  1  0
 19 20  2  3
 20 21  1  0
 21 22  1  0
 22 23  1  0
 23 24  1  0
 24 25  1  0
 25 26  1  0
 26 27  1  0
 27 28  1  0
 19  1  1  0
 28 23  1  0
 10  4  1  0
 17 12  1  0
  1 29  1  0
  3 30  1  0
  5 31  1  0
  6 32  1  0
  7 33  1  0
  9 34  1  0
  9 35  1  0
  9 36  1  0
 11 37  1  0
 11 38  1  0
 11 39  1  0
 13 40  1  0
 16 41  1  0
 16 42  1  0
 16 43  1  0
 21 44  1  0
 21 45  1  0
 22 46  1  0
 22 47  1  0
 23 48  1  0
 24 49  1  0
 24 50  1  0
 25 51  1  0
 25 52  1  0
 27 53  1  0
 27 54  1  0
 28 55  1  0
 28 56  1  0
M  CHG  1  23   1
M  END
>  <ScrubInfo>  (2) 
{"isomerGroup": 0, "isomerId": 1, "confId": 0, "nr_conformers:": 1, "nr_isomers:": 9}

$$$$
_i2
     RDKit          3D

 56 59  0  0  0  0  0  0  0  0999 V2000
   -0.4269    4.8873    0.7622 N   0  0  0  0  0  0  0  0  0  0  0  0
   -1.4585    3.9863    0.6911 C   0  0  0  0  0  0  0  0  0  0  0  0
   -2.4091    4.1868    1.6608 N   0  0  0  0  0  0  0  0  0  0  0  0
   -3.5204    3.2617    1.8214 C   0  0  0  0  0  0  0  0  0  0  0  0
   -4.5395    3.4022    0.6678 C   0  0  0  0  0  0  0  0  0  0  0  0
   -5.2352    2.0888    0.3457 N   0  0  0  0  0  4  0  0  0  0  0  0
   -4.3180    1.1305   -0.4204 C   0  0  0  0  0  0  0  0  0  0  0  0
   -5.0834   -0.1548   -0.7541 C   0  0  0  0  0  0  0  0  0  0  0  0
   -6.2610    0.1315   -1.5147 O   0  0  0  0  0  0  0  0  0  0  0  0
   -7.1645    0.9792   -0.7987 C   0  0  0  0  0  0  0  0  0  0  0  0
   -6.5088    2.3240   -0.4674 C   0  0  0  0  0  0  0  0  0  0  0  0
   -1.5542    3.0444   -0.2164 N   0  0  0  0  0  0  0  0  0  0  0  0
   -0.4777    3.0637   -1.0615 C   0  0  0  0  0  0  0  0  0  0  0  0
    0.6025    3.9379   -1.0686 C   0  0  0  0  0  0  0  0  0  0  0  0
    1.3969    3.5114   -2.1469 C   0  0  0  0  0  0  0  0  0  0  0  0
    0.8769    2.4525   -2.7779 N   0  0  0  0  0  0  0  0  0  0  0  0
   -0.2499    2.1896   -2.0903 N   0  0  0  0  0  0  0  0  0  0  0  0
   -1.0716    1.0755   -2.4873 C   0  0  0  0  0  0  0  0  0  0  0  0
    0.6611    4.9875   -0.0734 C   0  0  0  0  0  0  0  0  0  0  0  0
    1.5433    5.9244    0.0843 N   0  0  0  0  0  0  0  0  0  0  0  0
    2.6553    6.0434   -0.7585 C   0  0  0  0  0  0  0  0  0  0  0  0
    3.8432    5.4047   -0.3842 C   0  0  0  0  0  0  0  0  0  0  0  0
    4.9789    5.4936   -1.1828 C   0  0  0  0  0  0  0  0  0  0  0  0
    4.9367    6.2284   -2.3643 C   0  0  0  0  0  0  0  0  0  0  0  0
    3.7645    6.8947   -2.7556 C   0  0  0  0  0  0  0  0  0  0  0  0
    3.7769    7.6858   -4.0365 C   0  0  0  0  0  0  0  0  0  0  0  0
    2.6192    6.8341   -1.9274 C   0  0  0  0  0  0  0  0  0  0  0  0
    1.3531    7.5544   -2.3144 C   0  0  0  0  0  0  0  0  0  0  0  0
   -0.4817    5.6473    1.4225 H   0  0  0  0  0  0  0  0  0  0  0  0
   -2.0229    4.5073    2.5460 H   0  0  0  0  0  0  0  0  0  0  0  0
   -3.1346    2.2421    1.9207 H   0  0  0  0  0  0  0  0  0  0  0  0
   -4.0313    3.4876    2.7648 H   0  0  0  0  0  0  0  0  0  0  0  0
   -5.3204    4.1084    0.9734 H   0  0  0  0  0  0  0  0  0  0  0  0
   -4.1032    3.7721   -0.2658 H   0  0  0  0  0  0  0  0  0  0  0  0
   -5.5114    1.6336    1.2247 H   0  0  0  0  0  0  0  0  0  0  0  0
   -4.0106    1.6514   -1.3332 H   0  0  0  0  0  0  0  0  0  0  0  0
   -3.4530    0.9101    0.2087 H   0  0  0  0  0  0  0  0  0  0  0  0
   -5.3629   -0.6978    0.1563 H   0  0  0  0  0  0  0  0  0  0  0  0
   -4.4506   -0.8147   -1.3558 H   0  0  0  0  0  0  0  0  0  0  0  0
   -8.0417    1.1422   -1.4324 H   0  0  0  0  0  0  0  0  0  0  0  0
   -7.4992    0.4662    0.1106 H   0  0  0  0  0  0  0  0  0  0  0  0
   -7.1734    2.9489    0.1365 H   0  0  0  0  0  0  0  0  0  0  0  0
   -6.2078    2.8537   -1.3778 H   0  0  0  0  0  0  0  0  0  0  0  0
    2.3317    3.9125   -2.5157 H   0  0  0  0  0  0  0  0  0  0  0  0
   -1.9151    1.4619   -3.0642 H   0  0  0  0  0  0  0  0  0  0  0  0
   -0.4822    0.3855   -3.0969 H   0  0  0  0  0  0  0  0  0  0  0  0
   -1.4237    0.5573   -1.5920 H   0  0  0  0  0  0  0  0  0  0  0  0
    3.8803    4.8324    0.5387 H   0  0  0  0  0  0  0  0  0  0  0  0
    5.8962    4.9920   -0.8856 H   0  0  0  0  0  0  0  0  0  0  0  0
    5.8327    6.2848   -2.9803 H   0  0  0  0  0  0  0  0  0  0  0  0
    4.6677    7.4658   -4.6346 H   0  0  0  0  0  0  0  0  0  0  0  0
    2.9079    7.4344   -4.6531 H   0  0  0  0  0  0  0  0  0  0  0  0
    3.7739    8.7581   -3.8173 H   0  0  0  0  0  0  0  0  0  0  0  0
    0.7747    6.9413   -3.0126 H   0  0  0  0  0  0  0  0  0  0  0  0
    0.7281    7.7784   -1.4442 H   0  0  0  0  0  0  0  0  0  0  0  0
    1.5717    8.5195   -2.7819 H   0  0  0  0  0  0  0  0  0  0  0  0
  1  2  1  0
  2  3  1  0
  3  4  1  0
  4  5  1  0
  5  6  1  0
  6  7  1  0
  7  8  1  0
  8  9  1  0
  9 10  1  0
 10 11  1  0
  2 12  2  0
 12 13  1  0
 13 14  2  0
 14 15  1  0
 15 16  2  0
 16 17  1  0
 17 18  1  0
 14 19  1  0
 19 20  2  3
 20 21  1  0
 21 22  2  0
 22 23  1  0
 23 24  2  0
 24 25  1  0
 25 26  1  0
 25 27  2  0
 27 28  1  0
 19  1  1  0
 27 21  1  0
 11  6  1  0
 17 13  1  0
  1 29  1  0
  3 30  1  0
  4 31  1  0
  4 32  1  0
  5 33  1  0
  5 34  1  0
  6 35  1  0
  7 36  1  0
  7 37  1  0
  8 38  1  0
  8 39  1  0
 10 40  1  0
 10 41  1  0
 11 42  1  0
 11 43  1  0
 15 44  1  0
 18 45  1  0
 18 46  1  0
 18 47  1  0
 22 48  1  0
 23 49  1  0
 24 50  1  0
 26 51  1  0
 26 52  1  0
 26 53  1  0
 28 54  1  0
 28 55  1  0
 28 56  1  0
M  CHG  1   6   1
M  END
>  <ScrubInfo>  (3) 
{"isomerGroup": 0, "isomerId": 2, "confId": 0, "nr_conformers:": 1, "nr_isomers:": 9}

$$$$
_i3
     RDKit          3D

 56 59  0  0  0  0  0  0  0  0999 V2000
    0.1298   -0.0501    3.8536 N   0  0  0  0  0  0  0  0  0  0  0  0
    0.4407   -0.6871    2.6680 C   0  0  0  0  0  0  0  0  0  0  0  0
    1.6127   -0.9611    2.2227 N   0  0  0  0  0  0  0  0  0  0  0  0
    2.8152   -0.6120    2.9499 C   0  0  0  0  0  0  0  0  0  0  0  0
    4.0026   -1.3770    2.3369 C   0  0  0  0  0  0  0  0  0  0  0  0
    4.3099   -1.0514    0.8876 N   0  0  0  0  0  4  0  0  0  0  0  0
    4.7582    0.3743    0.6290 C   0  0  0  0  0  0  0  0  0  0  0  0
    5.2339    0.4878   -0.8272 C   0  0  0  0  0  0  0  0  0  0  0  0
    4.2105    0.0942   -1.7491 O   0  0  0  0  0  0  0  0  0  0  0  0
    3.7642   -1.2524   -1.5296 C   0  0  0  0  0  0  0  0  0  0  0  0
    3.2056   -1.4192   -0.1096 C   0  0  0  0  0  0  0  0  0  0  0  0
   -0.5408   -1.1109    1.7941 N   0  0  0  0  0  0  0  0  0  0  0  0
   -1.8019   -0.9387    2.0724 C   0  0  0  0  0  0  0  0  0  0  0  0
   -2.8862   -1.3212    1.3227 N   0  0  0  0  0  0  0  0  0  0  0  0
   -2.9175   -1.7652   -0.0202 C   0  0  0  0  0  0  0  0  0  0  0  0
   -1.8560   -1.5132   -0.9021 C   0  0  0  0  0  0  0  0  0  0  0  0
   -1.8893   -1.9529   -2.2237 C   0  0  0  0  0  0  0  0  0  0  0  0
   -2.9881   -2.6623   -2.6906 C   0  0  0  0  0  0  0  0  0  0  0  0
   -4.0645   -2.9521   -1.8412 C   0  0  0  0  0  0  0  0  0  0  0  0
   -5.2276   -3.7263   -2.4049 C   0  0  0  0  0  0  0  0  0  0  0  0
   -4.0198   -2.5336   -0.4872 C   0  0  0  0  0  0  0  0  0  0  0  0
   -5.1595   -2.8719    0.4470 C   0  0  0  0  0  0  0  0  0  0  0  0
   -2.1702   -0.2903    3.3166 C   0  0  0  0  0  0  0  0  0  0  0  0
   -3.3488    0.0826    3.9834 C   0  0  0  0  0  0  0  0  0  0  0  0
   -3.1023    0.6835    5.1557 N   0  0  0  0  0  0  0  0  0  0  0  0
   -1.7523    0.7009    5.2404 N   0  0  0  0  0  0  0  0  0  0  0  0
   -1.1357    1.2899    6.4023 C   0  0  0  0  0  0  0  0  0  0  0  0
   -1.1695    0.1276    4.1534 C   0  0  0  0  0  0  0  0  0  0  0  0
    0.8800    0.2458    4.4583 H   0  0  0  0  0  0  0  0  0  0  0  0
    2.7367   -0.9041    4.0035 H   0  0  0  0  0  0  0  0  0  0  0  0
    2.9922    0.4675    2.9074 H   0  0  0  0  0  0  0  0  0  0  0  0
    4.9189   -1.1651    2.8987 H   0  0  0  0  0  0  0  0  0  0  0  0
    3.8256   -2.4581    2.3726 H   0  0  0  0  0  0  0  0  0  0  0  0
    5.1017   -1.6590    0.6480 H   0  0  0  0  0  0  0  0  0  0  0  0
    3.8972    1.0243    0.8137 H   0  0  0  0  0  0  0  0  0  0  0  0
    5.5675    0.6018    1.3288 H   0  0  0  0  0  0  0  0  0  0  0  0
    6.1245   -0.1279   -0.9993 H   0  0  0  0  0  0  0  0  0  0  0  0
    5.4993    1.5262   -1.0485 H   0  0  0  0  0  0  0  0  0  0  0  0
    2.9807   -1.4655   -2.2634 H   0  0  0  0  0  0  0  0  0  0  0  0
    4.5961   -1.9416   -1.7152 H   0  0  0  0  0  0  0  0  0  0  0  0
    2.3816   -0.7164    0.0292 H   0  0  0  0  0  0  0  0  0  0  0  0
    2.9021   -2.4507    0.0883 H   0  0  0  0  0  0  0  0  0  0  0  0
   -3.8069   -1.2005    1.7187 H   0  0  0  0  0  0  0  0  0  0  0  0
   -0.9940   -0.9353   -0.5835 H   0  0  0  0  0  0  0  0  0  0  0  0
   -1.0639   -1.7289   -2.8936 H   0  0  0  0  0  0  0  0  0  0  0  0
   -3.0027   -2.9882   -3.7291 H   0  0  0  0  0  0  0  0  0  0  0  0
   -5.2519   -4.7347   -1.9804 H   0  0  0  0  0  0  0  0  0  0  0  0
   -5.1558   -3.8242   -3.4936 H   0  0  0  0  0  0  0  0  0  0  0  0
   -6.1703   -3.2116   -2.1929 H   0  0  0  0  0  0  0  0  0  0  0  0
   -5.7500   -3.7239    0.0998 H   0  0  0  0  0  0  0  0  0  0  0  0
   -4.7827   -3.1602    1.4342 H   0  0  0  0  0  0  0  0  0  0  0  0
   -5.8239   -2.0083    0.5502 H   0  0  0  0  0  0  0  0  0  0  0  0
   -4.3805   -0.0467    3.6831 H   0  0  0  0  0  0  0  0  0  0  0  0
   -1.4755    0.7446    7.2864 H   0  0  0  0  0  0  0  0  0  0  0  0
   -1.4387    2.3384    6.4587 H   0  0  0  0  0  0  0  0  0  0  0  0
   -0.0489    1.2225    6.3211 H   0  0  0  0  0  0  0  0  0  0  0  0
  1  2  1  0
  2  3  2  3
  3  4  1  0
  4  5  1  0
  5  6  1  0
  6  7  1  0
  7  8  1  0
  8  9  1  0
  9 10  1  0
 10 11  1  0
  2 12  1  0
 12 13  2  0
 13 14  1  0
 14 15  1  0
 15 16  2  0
 16 17  1  0
 17 18  2  0
 18 19  1  0
 19 20  1  0
 19 21  2  0
 21 22  1  0
 13 23  1  0
 23 24  1  0
 24 25  2  0
 25 26  1  0
 26 27  1  0
 26 28  1  0
 28  1  1  0
 11  6  1  0
 21 15  1  0
 28 23  2  0
  1 29  1  0
  4 30  1  0
  4 31  1  0
  5 32  1  0
  5 33  1  0
  6 34  1  0
  7 35  1  0
  7 36  1  0
  8 37  1  0
  8 38  1  0
 10 39  1  0
 10 40  1  0
 11 41  1  0
 11 42  1  0
 14 43  1  0
 16 44  1  0
 17 45  1  0
 18 46  1  0
 20 47  1  0
 20 48  1  0
 20 49  1  0
 22 50  1  0
 22 51  1  0
 22 52  1  0
 24 53  1  0
 27 54  1  0
 27 55  1  0
 27 56  1  0
M  CHG  1   6   1
M  END
>  <ScrubInfo>  (4) 
{"isomerGroup": 0, "isomerId": 3, "confId": 0, "nr_conformers:": 1, "nr_isomers:": 9}

$$$$
_i4
     RDKit          3D

 56 59  0  0  0  0  0  0  0  0999 V2000
    2.1721   -5.3781    3.2194 N   0  0  0  0  0  0  0  0  0  0  0  0
    2.2716   -4.5505    2.1287 C   0  0  0  0  0  0  0  0  0  0  0  0
    2.7381   -5.1820    1.0105 N   0  0  0  0  0  0  0  0  0  0  0  0
    3.2334   -4.4671   -0.1686 C   0  0  0  0  0  0  0  0  0  0  0  0
    2.1356   -3.7014   -0.9427 C   0  0  0  0  0  0  0  0  0  0  0  0
    1.7966   -2.3510   -0.3458 N   0  0  0  0  0  4  0  0  0  0  0  0
    2.8609   -1.2898   -0.5647 C   0  0  0  0  0  0  0  0  0  0  0  0
    2.4109    0.0561    0.0121 C   0  0  0  0  0  0  0  0  0  0  0  0
    1.1636    0.4590   -0.5636 O   0  0  0  0  0  0  0  0  0  0  0  0
    0.1294   -0.4708   -0.2243 C   0  0  0  0  0  0  0  0  0  0  0  0
    0.4319   -1.8581   -0.7991 C   0  0  0  0  0  0  0  0  0  0  0  0
    1.9493   -3.2876    2.1152 N   0  0  0  0  0  0  0  0  0  0  0  0
    1.4650   -2.6853    3.2743 C   0  0  0  0  0  0  0  0  0  0  0  0
    1.1231   -1.4500    3.1066 N   0  0  0  0  0  0  0  0  0  0  0  0
    0.6024   -0.6844    4.1567 C   0  0  0  0  0  0  0  0  0  0  0  0
    1.4874    0.1072    4.8978 C   0  0  0  0  0  0  0  0  0  0  0  0
    1.0261    0.8984    5.9447 C   0  0  0  0  0  0  0  0  0  0  0  0
   -0.3301    0.9082    6.2569 C   0  0  0  0  0  0  0  0  0  0  0  0
   -1.2433    0.1371    5.5204 C   0  0  0  0  0  0  0  0  0  0  0  0
   -2.7010    0.1928    5.8949 C   0  0  0  0  0  0  0  0  0  0  0  0
   -0.7811   -0.6448    4.4359 C   0  0  0  0  0  0  0  0  0  0  0  0
   -1.7485   -1.4740    3.6309 C   0  0  0  0  0  0  0  0  0  0  0  0
    1.3856   -3.5054    4.4614 C   0  0  0  0  0  0  0  0  0  0  0  0
    1.0086   -3.3561    5.8067 C   0  0  0  0  0  0  0  0  0  0  0  0
    1.1019   -4.5026    6.4965 N   0  0  0  0  0  0  0  0  0  0  0  0
    1.5507   -5.3974    5.5908 N   0  0  0  0  0  0  0  0  0  0  0  0
    1.7654   -6.7615    6.0037 C   0  0  0  0  0  0  0  0  0  0  0  0
    1.7372   -4.8291    4.3693 C   0  0  0  0  0  0  0  0  0  0  0  0
    2.3187   -6.3736    3.1098 H   0  0  0  0  0  0  0  0  0  0  0  0
    3.3006   -6.0043    1.2142 H   0  0  0  0  0  0  0  0  0  0  0  0
    3.6412   -5.2243   -0.8490 H   0  0  0  0  0  0  0  0  0  0  0  0
    4.0696   -3.8193    0.1119 H   0  0  0  0  0  0  0  0  0  0  0  0
    1.2120   -4.2915   -0.9585 H   0  0  0  0  0  0  0  0  0  0  0  0
    2.4504   -3.5158   -1.9757 H   0  0  0  0  0  0  0  0  0  0  0  0
    1.7298   -2.4984    0.6865 H   0  0  0  0  0  0  0  0  0  0  0  0
    3.7819   -1.6286   -0.0840 H   0  0  0  0  0  0  0  0  0  0  0  0
    3.0063   -1.2148   -1.6479 H   0  0  0  0  0  0  0  0  0  0  0  0
    2.3217    0.0193    1.1028 H   0  0  0  0  0  0  0  0  0  0  0  0
    3.1509    0.8249   -0.2308 H   0  0  0  0  0  0  0  0  0  0  0  0
   -0.8059   -0.0950   -0.6507 H   0  0  0  0  0  0  0  0  0  0  0  0
    0.0048   -0.5001    0.8619 H   0  0  0  0  0  0  0  0  0  0  0  0
   -0.3112   -2.5910   -0.4703 H   0  0  0  0  0  0  0  0  0  0  0  0
    0.4672   -1.8218   -1.8934 H   0  0  0  0  0  0  0  0  0  0  0  0
    2.5474    0.1070    4.6583 H   0  0  0  0  0  0  0  0  0  0  0  0
    1.7211    1.5059    6.5188 H   0  0  0  0  0  0  0  0  0  0  0  0
   -0.6748    1.5288    7.0830 H   0  0  0  0  0  0  0  0  0  0  0  0
   -3.1102   -0.8169    6.0009 H   0  0  0  0  0  0  0  0  0  0  0  0
   -2.8489    0.7006    6.8542 H   0  0  0  0  0  0  0  0  0  0  0  0
   -3.2649    0.7410    5.1340 H   0  0  0  0  0  0  0  0  0  0  0  0
   -1.9812   -2.3999    4.1663 H   0  0  0  0  0  0  0  0  0  0  0  0
   -2.6762   -0.9243    3.4416 H   0  0  0  0  0  0  0  0  0  0  0  0
   -1.3475   -1.7350    2.6467 H   0  0  0  0  0  0  0  0  0  0  0  0
    0.6611   -2.4763    6.3327 H   0  0  0  0  0  0  0  0  0  0  0  0
    2.3314   -6.7593    6.9388 H   0  0  0  0  0  0  0  0  0  0  0  0
    0.7896   -7.2317    6.1474 H   0  0  0  0  0  0  0  0  0  0  0  0
    2.3302   -7.2955    5.2367 H   0  0  0  0  0  0  0  0  0  0  0  0
  1  2  1  0
  2  3  1  0
  3  4  1  0
  4  5  1  0
  5  6  1  0
  6  7  1  0
  7  8  1  0
  8  9  1  0
  9 10  1  0
 10 11  1  0
  2 12  2  0
 12 13  1  0
 13 14  2  3
 14 15  1  0
 15 16  2  0
 16 17  1  0
 17 18  2  0
 18 19  1  0
 19 20  1  0
 19 21  2  0
 21 22  1  0
 13 23  1  0
 23 24  1  0
 24 25  2  0
 25 26  1  0
 26 27  1  0
 26 28  1  0
 28  1  1  0
 11  6  1  0
 21 15  1  0
 28 23  2  0
  1 29  1  0
  3 30  1  0
  4 31  1  0
  4 32  1  0
  5 33  1  0
  5 34  1  0
  6 35  1  0
  7 36  1  0
  7 37  1  0
  8 38  1  0
  8 39  1  0
 10 40  1  0
 10 41  1  0
 11 42  1  0
 11 43  1  0
 16 44  1  0
 17 45  1  0
 18 46  1  0
 20 47  1  0
 20 48  1  0
 20 49  1  0
 22 50  1  0
 22 51  1  0
 22 52  1  0
 24 53  1  0
 27 54  1  0
 27 55  1  0
 27 56  1  0
M  CHG  1   6   1
M  END
>  <ScrubInfo>  (5) 
{"isomerGroup": 0, "isomerId": 4, "confId": 0, "nr_conformers:": 1, "nr_isomers:": 9}

$$$$
_i5
     RDKit          3D

 56 59  0  0  0  0  0  0  0  0999 V2000
   -6.4474   -5.9057    4.6342 N   0  0  0  0  0  0  0  0  0  0  0  0
   -5.9169   -7.0757    4.1140 C   0  0  0  0  0  0  0  0  0  0  0  0
   -4.8965   -6.8624    3.2720 C   0  0  0  0  0  0  0  0  0  0  0  0
   -3.9707   -7.6291    2.4501 C   0  0  0  0  0  0  0  0  0  0  0  0
   -3.8980   -8.8909    2.2011 N   0  0  0  0  0  0  0  0  0  0  0  0
   -4.8109   -9.7816    2.7807 C   0  0  0  0  0  0  0  0  0  0  0  0
   -4.4752  -10.3745    4.0033 C   0  0  0  0  0  0  0  0  0  0  0  0
   -5.3518  -11.2543    4.6301 C   0  0  0  0  0  0  0  0  0  0  0  0
   -6.5744  -11.5523    4.0348 C   0  0  0  0  0  0  0  0  0  0  0  0
   -6.9294  -10.9884    2.7989 C   0  0  0  0  0  0  0  0  0  0  0  0
   -8.2512  -11.3674    2.1859 C   0  0  0  0  0  0  0  0  0  0  0  0
   -6.0241  -10.1211    2.1438 C   0  0  0  0  0  0  0  0  0  0  0  0
   -6.3639   -9.5274    0.8009 C   0  0  0  0  0  0  0  0  0  0  0  0
   -3.0225   -6.8545    1.8343 N   0  0  0  0  0  0  0  0  0  0  0  0
   -3.0332   -5.5616    1.8586 C   0  0  0  0  0  0  0  0  0  0  0  0
   -1.9985   -4.9375    1.2187 N   0  0  0  0  0  0  0  0  0  0  0  0
   -2.2027   -4.3170   -0.0899 C   0  0  0  0  0  0  0  0  0  0  0  0
   -2.7381   -2.8779    0.0084 C   0  0  0  0  0  0  0  0  0  0  0  0
   -4.1321   -2.7960    0.5925 N   0  0  0  0  0  4  0  0  0  0  0  0
   -4.4813   -1.3746    1.0020 C   0  0  0  0  0  0  0  0  0  0  0  0
   -5.9027   -1.3151    1.5692 C   0  0  0  0  0  0  0  0  0  0  0  0
   -6.8540   -1.8354    0.6358 O   0  0  0  0  0  0  0  0  0  0  0  0
   -6.5894   -3.2110    0.3415 C   0  0  0  0  0  0  0  0  0  0  0  0
   -5.2121   -3.3749   -0.3094 C   0  0  0  0  0  0  0  0  0  0  0  0
   -3.9678   -4.7691    2.4774 N   0  0  0  0  0  0  0  0  0  0  0  0
   -4.8342   -5.3862    3.2157 C   0  0  0  0  0  0  0  0  0  0  0  0
   -5.8309   -4.8209    4.0211 N   0  0  0  0  0  0  0  0  0  0  0  0
   -5.4956   -3.7065    4.9024 C   0  0  0  0  0  0  0  0  0  0  0  0
   -7.4680   -5.8986    4.7143 H   0  0  0  0  0  0  0  0  0  0  0  0
   -6.3535   -8.0184    4.4142 H   0  0  0  0  0  0  0  0  0  0  0  0
   -3.5171  -10.1495    4.4651 H   0  0  0  0  0  0  0  0  0  0  0  0
   -5.0797  -11.7131    5.5773 H   0  0  0  0  0  0  0  0  0  0  0  0
   -7.2474  -12.2456    4.5368 H   0  0  0  0  0  0  0  0  0  0  0  0
   -8.8983  -11.8730    2.9108 H   0  0  0  0  0  0  0  0  0  0  0  0
   -8.0943  -12.0456    1.3414 H   0  0  0  0  0  0  0  0  0  0  0  0
   -8.7884  -10.4761    1.8460 H   0  0  0  0  0  0  0  0  0  0  0  0
   -6.9904   -8.6401    0.9344 H   0  0  0  0  0  0  0  0  0  0  0  0
   -5.4678   -9.2420    0.2408 H   0  0  0  0  0  0  0  0  0  0  0  0
   -6.8934  -10.2487    0.1706 H   0  0  0  0  0  0  0  0  0  0  0  0
   -1.2879   -5.6661    1.1044 H   0  0  0  0  0  0  0  0  0  0  0  0
   -2.8413   -4.9466   -0.7186 H   0  0  0  0  0  0  0  0  0  0  0  0
   -1.2278   -4.2712   -0.5898 H   0  0  0  0  0  0  0  0  0  0  0  0
   -2.0859   -2.2892    0.6636 H   0  0  0  0  0  0  0  0  0  0  0  0
   -2.7709   -2.4041   -0.9787 H   0  0  0  0  0  0  0  0  0  0  0  0
   -4.1093   -3.3758    1.4596 H   0  0  0  0  0  0  0  0  0  0  0  0
   -4.3977   -0.7613    0.0981 H   0  0  0  0  0  0  0  0  0  0  0  0
   -3.7469   -1.0533    1.7468 H   0  0  0  0  0  0  0  0  0  0  0  0
   -6.1732   -0.2746    1.7746 H   0  0  0  0  0  0  0  0  0  0  0  0
   -5.9819   -1.8688    2.5094 H   0  0  0  0  0  0  0  0  0  0  0  0
   -7.3651   -3.5579   -0.3482 H   0  0  0  0  0  0  0  0  0  0  0  0
   -6.6730   -3.8032    1.2592 H   0  0  0  0  0  0  0  0  0  0  0  0
   -5.1585   -2.8229   -1.2539 H   0  0  0  0  0  0  0  0  0  0  0  0
   -4.9895   -4.4317   -0.4744 H   0  0  0  0  0  0  0  0  0  0  0  0
   -4.8128   -4.0284    5.6963 H   0  0  0  0  0  0  0  0  0  0  0  0
   -6.4037   -3.3040    5.3626 H   0  0  0  0  0  0  0  0  0  0  0  0
   -5.0145   -2.8997    4.3421 H   0  0  0  0  0  0  0  0  0  0  0  0
  1  2  1  0
  2  3  2  0
  3  4  1  0
  4  5  2  3
  5  6  1  0
  6  7  2  0
  7  8  1  0
  8  9  2  0
  9 10  1  0
 10 11  1  0
 10 12  2  0
 12 13  1  0
  4 14  1  0
 14 15  2  0
 15 16  1  0
 16 17  1  0
 17 18  1  0
 18 19  1  0
 19 20  1  0
 20 21  1  0
 21 22  1  0
 22 23  1  0
 23 24  1  0
 15 25  1  0
 25 26  2  0
 26 27  1  0
 27 28  1  0
 27  1  1  0
 26  3  1  0
 12  6  1  0
 24 19  1  0
  1 29  1  0
  2 30  1  0
  7 31  1  0
  8 32  1  0
  9 33  1  0
 11 34  1  0
 11 35  1  0
 11 36  1  0
 13 37  1  0
 13 38  1  0
 13 39  1  0
 16 40  1  0
 17 41  1  0
 17 42  1  0
 18 43  1  0
 18 44  1  0
 19 45  1  0
 20 46  1  0
 20 47  1  0
 21 48  1  0
 21 49  1  0
 23 50  1  0
 23 51  1  0
 24 52  1  0
 24 53  1  0
 28 54  1  0
 28 55  1  0
 28 56  1  0
M  CHG  1  19   1
M  END
>  <ScrubInfo>  (6) 
{"isomerGroup": 0, "isomerId": 5, "confId": 0, "nr_conformers:": 1, "nr_isomers:": 9}

$$$$
_i6
     RDKit          3D

 56 59  0  0  0  0  0  0  0  0999 V2000
    9.8069    6.5089    4.6592 N   0  0  0  0  0  0  0  0  0  0  0  0
    9.2448    5.8229    5.7278 C   0  0  0  0  0  0  0  0  0  0  0  0
    8.2322    5.0275    5.3568 C   0  0  0  0  0  0  0  0  0  0  0  0
    7.2826    4.0975    5.9772 C   0  0  0  0  0  0  0  0  0  0  0  0
    7.3832    3.8179    7.3257 N   0  0  0  0  0  0  0  0  0  0  0  0
    6.4688    3.1455    8.1712 C   0  0  0  0  0  0  0  0  0  0  0  0
    5.1187    2.9915    7.8245 C   0  0  0  0  0  0  0  0  0  0  0  0
    4.2262    2.3215    8.6587 C   0  0  0  0  0  0  0  0  0  0  0  0
    4.6689    1.7863    9.8612 C   0  0  0  0  0  0  0  0  0  0  0  0
    6.0121    1.9038   10.2430 C   0  0  0  0  0  0  0  0  0  0  0  0
    6.4326    1.3043   11.5596 C   0  0  0  0  0  0  0  0  0  0  0  0
    6.9301    2.5551    9.3806 C   0  0  0  0  0  0  0  0  0  0  0  0
    8.3877    2.6556    9.7688 C   0  0  0  0  0  0  0  0  0  0  0  0
    6.4023    3.5471    5.1866 N   0  0  0  0  0  0  0  0  0  0  0  0
    6.3673    3.8880    3.8619 C   0  0  0  0  0  0  0  0  0  0  0  0
    5.3629    3.3739    3.2414 N   0  0  0  0  0  0  0  0  0  0  0  0
    5.2141    3.6059    1.7983 C   0  0  0  0  0  0  0  0  0  0  0  0
    5.7035    2.3391    1.0835 C   0  0  0  0  0  0  0  0  0  0  0  0
    5.2738    1.1435    1.9168 N   0  0  0  0  0  4  0  0  0  0  0  0
    3.8438    0.7065    1.6692 C   0  0  0  0  0  0  0  0  0  0  0  0
    3.4885   -0.4384    2.6241 C   0  0  0  0  0  0  0  0  0  0  0  0
    4.4040   -1.5318    2.4756 O   0  0  0  0  0  0  0  0  0  0  0  0
    5.7454   -1.1359    2.7892 C   0  0  0  0  0  0  0  0  0  0  0  0
    6.2268   -0.0262    1.8476 C   0  0  0  0  0  0  0  0  0  0  0  0
    7.2867    4.6274    3.1663 N   0  0  0  0  0  0  0  0  0  0  0  0
    8.1931    5.1990    3.8848 C   0  0  0  0  0  0  0  0  0  0  0  0
    9.2399    6.0289    3.4847 N   0  0  0  0  0  0  0  0  0  0  0  0
    9.0940    6.9393    2.3624 C   0  0  0  0  0  0  0  0  0  0  0  0
   10.8280    6.5782    4.6871 H   0  0  0  0  0  0  0  0  0  0  0  0
    9.6541    5.9758    6.7161 H   0  0  0  0  0  0  0  0  0  0  0  0
    8.1349    4.2590    7.8396 H   0  0  0  0  0  0  0  0  0  0  0  0
    4.7231    3.4251    6.9108 H   0  0  0  0  0  0  0  0  0  0  0  0
    3.1807    2.2314    8.3758 H   0  0  0  0  0  0  0  0  0  0  0  0
    3.9544    1.2777   10.5058 H   0  0  0  0  0  0  0  0  0  0  0  0
    7.0550    0.4200   11.3905 H   0  0  0  0  0  0  0  0  0  0  0  0
    5.5670    0.9949   12.1554 H   0  0  0  0  0  0  0  0  0  0  0  0
    6.9846    2.0373   12.1568 H   0  0  0  0  0  0  0  0  0  0  0  0
    9.0367    2.5236    8.8965 H   0  0  0  0  0  0  0  0  0  0  0  0
    8.6876    1.8764   10.4748 H   0  0  0  0  0  0  0  0  0  0  0  0
    8.5849    3.6320   10.2220 H   0  0  0  0  0  0  0  0  0  0  0  0
    4.1481    3.7562    1.5934 H   0  0  0  0  0  0  0  0  0  0  0  0
    5.7225    4.4956    1.4127 H   0  0  0  0  0  0  0  0  0  0  0  0
    6.7983    2.3324    1.0546 H   0  0  0  0  0  0  0  0  0  0  0  0
    5.3074    2.2311    0.0695 H   0  0  0  0  0  0  0  0  0  0  0  0
    5.3001    1.5230    2.8860 H   0  0  0  0  0  0  0  0  0  0  0  0
    3.7935    0.3784    0.6255 H   0  0  0  0  0  0  0  0  0  0  0  0
    3.1902    1.5687    1.8273 H   0  0  0  0  0  0  0  0  0  0  0  0
    2.4853   -0.8117    2.3962 H   0  0  0  0  0  0  0  0  0  0  0  0
    3.4915   -0.1018    3.6675 H   0  0  0  0  0  0  0  0  0  0  0  0
    6.3861   -2.0164    2.6801 H   0  0  0  0  0  0  0  0  0  0  0  0
    5.7929   -0.8159    3.8369 H   0  0  0  0  0  0  0  0  0  0  0  0
    6.2327   -0.3639    0.8059 H   0  0  0  0  0  0  0  0  0  0  0  0
    7.2195    0.3309    2.1376 H   0  0  0  0  0  0  0  0  0  0  0  0
   10.0463    7.4351    2.1481 H   0  0  0  0  0  0  0  0  0  0  0  0
    8.3422    7.7055    2.5784 H   0  0  0  0  0  0  0  0  0  0  0  0
    8.7905    6.3940    1.4630 H   0  0  0  0  0  0  0  0  0  0  0  0
  1  2  1  0
  2  3  2  0
  3  4  1  0
  4  5  1  0
  5  6  1  0
  6  7  2  0
  7  8  1  0
  8  9  2  0
  9 10  1  0
 10 11  1  0
 10 12  2  0
 12 13  1  0
  4 14  2  0
 14 15  1  0
 15 16  2  3
 16 17  1  0
 17 18  1  0
 18 19  1  0
 19 20  1  0
 20 21  1  0
 21 22  1  0
 22 23  1  0
 23 24  1  0
 15 25  1  0
 25 26  2  0
 26 27  1  0
 27 28  1  0
 27  1  1  0
 26  3  1  0
 12  6  1  0
 24 19  1  0
  1 29  1  0
  2 30  1  0
  5 31  1  0
  7 32  1  0
  8 33  1  0
  9 34  1  0
 11 35  1  0
 11 36  1  0
 11 37  1  0
 13 38  1  0
 13 39  1  0
 13 40  1  0
 17 41  1  0
 17 42  1  0
 18 43  1  0
 18 44  1  0
 19 45  1  0
 20 46  1  0
 20 47  1  0
 21 48  1  0
 21 49  1  0
 23 50  1  0
 23 51  1  0
 24 52  1  0
 24 53  1  0
 28 54  1  0
 28 55  1  0
 28 56  1  0
M  CHG  1  19   1
M  END
>  <ScrubInfo>  (7) 
{"isomerGroup": 0, "isomerId": 6, "confId": 0, "nr_conformers:": 1, "nr_isomers:": 9}

$$$$
_i7
     RDKit          3D

 56 59  0  0  0  0  0  0  0  0999 V2000
    1.6702   -5.2283    0.4901 N   0  0  0  0  0  0  0  0  0  0  0  0
    2.4228   -4.0744    0.6664 C   0  0  0  0  0  0  0  0  0  0  0  0
    1.6848   -2.9612    0.5934 C   0  0  0  0  0  0  0  0  0  0  0  0
    1.8793   -1.5171    0.7264 C   0  0  0  0  0  0  0  0  0  0  0  0
    3.0684   -1.0434    0.9446 N   0  0  0  0  0  0  0  0  0  0  0  0
    3.2258    0.3469    1.0669 C   0  0  0  0  0  0  0  0  0  0  0  0
    3.1163    0.9200    2.3385 C   0  0  0  0  0  0  0  0  0  0  0  0
    3.2239    2.2966    2.5072 C   0  0  0  0  0  0  0  0  0  0  0  0
    3.4413    3.1134    1.4007 C   0  0  0  0  0  0  0  0  0  0  0  0
    3.5677    2.5643    0.1145 C   0  0  0  0  0  0  0  0  0  0  0  0
    3.8367    3.4894   -1.0426 C   0  0  0  0  0  0  0  0  0  0  0  0
    3.4929    1.1621   -0.0534 C   0  0  0  0  0  0  0  0  0  0  0  0
    3.6560    0.5384   -1.4166 C   0  0  0  0  0  0  0  0  0  0  0  0
    0.7029   -0.8183    0.5956 N   0  0  0  0  0  0  0  0  0  0  0  0
   -0.5367   -1.3497    0.3645 C   0  0  0  0  0  0  0  0  0  0  0  0
   -1.5587   -0.5484    0.2861 N   0  0  0  0  0  0  0  0  0  0  0  0
   -2.8642   -1.2113    0.0602 C   0  0  0  0  0  0  0  0  0  0  0  0
   -3.9489   -0.1257    0.0698 C   0  0  0  0  0  0  0  0  0  0  0  0
   -3.4044    1.1000   -0.6343 N   0  0  0  0  0  4  0  0  0  0  0  0
   -4.0313    2.3937   -0.1619 C   0  0  0  0  0  0  0  0  0  0  0  0
   -3.3652    3.5757   -0.8749 C   0  0  0  0  0  0  0  0  0  0  0  0
   -3.4567    3.4389   -2.2981 O   0  0  0  0  0  0  0  0  0  0  0  0
   -2.8009    2.2506   -2.7573 C   0  0  0  0  0  0  0  0  0  0  0  0
   -3.4412    0.9986   -2.1482 C   0  0  0  0  0  0  0  0  0  0  0  0
   -0.7312   -2.7041    0.1954 N   0  0  0  0  0  0  0  0  0  0  0  0
    0.3116   -3.4737    0.2870 C   0  0  0  0  0  0  0  0  0  0  0  0
    0.3752   -4.8608    0.1339 N   0  0  0  0  0  0  0  0  0  0  0  0
   -0.7243   -5.7195    0.5326 C   0  0  0  0  0  0  0  0  0  0  0  0
    2.1278   -5.9344   -0.0928 H   0  0  0  0  0  0  0  0  0  0  0  0
    3.4876   -4.1483    0.8414 H   0  0  0  0  0  0  0  0  0  0  0  0
    2.9575    0.2815    3.2041 H   0  0  0  0  0  0  0  0  0  0  0  0
    3.1530    2.7315    3.5011 H   0  0  0  0  0  0  0  0  0  0  0  0
    3.5346    4.1878    1.5514 H   0  0  0  0  0  0  0  0  0  0  0  0
    3.1702    3.2624   -1.8810 H   0  0  0  0  0  0  0  0  0  0  0  0
    4.8781    3.3957   -1.3657 H   0  0  0  0  0  0  0  0  0  0  0  0
    3.6595    4.5349   -0.7683 H   0  0  0  0  0  0  0  0  0  0  0  0
    4.0012   -0.4984   -1.3525 H   0  0  0  0  0  0  0  0  0  0  0  0
    2.7009    0.5579   -1.9505 H   0  0  0  0  0  0  0  0  0  0  0  0
    4.4087    1.0681   -2.0087 H   0  0  0  0  0  0  0  0  0  0  0  0
    0.7483    0.1814    0.7184 H   0  0  0  0  0  0  0  0  0  0  0  0
   -3.0899   -1.9435    0.8444 H   0  0  0  0  0  0  0  0  0  0  0  0
   -2.8693   -1.7155   -0.9135 H   0  0  0  0  0  0  0  0  0  0  0  0
   -4.1573    0.1696    1.1040 H   0  0  0  0  0  0  0  0  0  0  0  0
   -4.8783   -0.4375   -0.4164 H   0  0  0  0  0  0  0  0  0  0  0  0
   -2.4067    1.0918   -0.3500 H   0  0  0  0  0  0  0  0  0  0  0  0
   -3.8915    2.4593    0.9212 H   0  0  0  0  0  0  0  0  0  0  0  0
   -5.0973    2.3325   -0.4056 H   0  0  0  0  0  0  0  0  0  0  0  0
   -3.8692    4.5065   -0.5968 H   0  0  0  0  0  0  0  0  0  0  0  0
   -2.3109    3.6681   -0.5882 H   0  0  0  0  0  0  0  0  0  0  0  0
   -1.7335    2.3091   -2.5136 H   0  0  0  0  0  0  0  0  0  0  0  0
   -2.8933    2.2199   -3.8474 H   0  0  0  0  0  0  0  0  0  0  0  0
   -2.8985    0.0971   -2.4448 H   0  0  0  0  0  0  0  0  0  0  0  0
   -4.4961    0.9180   -2.4313 H   0  0  0  0  0  0  0  0  0  0  0  0
   -0.5227   -6.7561    0.2437 H   0  0  0  0  0  0  0  0  0  0  0  0
   -0.8732   -5.6822    1.6168 H   0  0  0  0  0  0  0  0  0  0  0  0
   -1.6519   -5.4098    0.0407 H   0  0  0  0  0  0  0  0  0  0  0  0
  1  2  1  0
  2  3  2  0
  3  4  1  0
  4  5  2  3
  5  6  1  0
  6  7  2  0
  7  8  1  0
  8  9  2  0
  9 10  1  0
 10 11  1  0
 10 12  2  0
 12 13  1  0
  4 14  1  0
 14 15  1  0
 15 16  2  3
 16 17  1  0
 17 18  1  0
 18 19  1  0
 19 20  1  0
 20 21  1  0
 21 22  1  0
 22 23  1  0
 23 24  1  0
 15 25  1  0
 25 26  2  0
 26 27  1  0
 27 28  1  0
 27  1  1  0
 26  3  1  0
 12  6  1  0
 24 19  1  0
  1 29  1  0
  2 30  1  0
  7 31  1  0
  8 32  1  0
  9 33  1  0
 11 34  1  0
 11 35  1  0
 11 36  1  0
 13 37  1  0
 13 38  1  0
 13 39  1  0
 14 40  1  0
 17 41  1  0
 17 42  1  0
 18 43  1  0
 18 44  1  0
 19 45  1  0
 20 46  1  0
 20 47  1  0
 21 48  1  0
 21 49  1  0
 23 50  1  0
 23 51  1  0
 24 52  1  0
 24 53  1  0
 28 54  1  0
 28 55  1  0
 28 56  1  0
M  CHG  1  19   1
M  END
>  <ScrubInfo>  (8) 
{"isomerGroup": 0, "isomerId": 7, "confId": 0, "nr_conformers:": 1, "nr_isomers:": 9}

$$$$
_i8
     RDKit          3D

 56 59  0  0  0  0  0  0  0  0999 V2000
    1.6513    3.3249   -4.1313 N   0  0  0  0  0  0  0  0  0  0  0  0
    1.9885    2.0911   -3.6128 C   0  0  0  0  0  0  0  0  0  0  0  0
    2.7779    2.0421   -2.5897 N   0  0  0  0  0  0  0  0  0  0  0  0
    3.1325    0.7389   -2.0392 C   0  0  0  0  0  0  0  0  0  0  0  0
    4.0650    0.9682   -0.8391 C   0  0  0  0  0  0  0  0  0  0  0  0
    4.6396   -0.3289   -0.3039 N   0  0  0  0  0  4  0  0  0  0  0  0
    5.7985   -0.0507    0.6574 C   0  0  0  0  0  0  0  0  0  0  0  0
    6.3643   -1.3743    1.1815 C   0  0  0  0  0  0  0  0  0  0  0  0
    5.3457   -2.1438    1.8280 O   0  0  0  0  0  0  0  0  0  0  0  0
    4.2819   -2.4760    0.9312 C   0  0  0  0  0  0  0  0  0  0  0  0
    3.6039   -1.2126    0.3878 C   0  0  0  0  0  0  0  0  0  0  0  0
    1.4086    1.0372   -4.2911 N   0  0  0  0  0  0  0  0  0  0  0  0
    0.5622    1.0142   -5.3831 C   0  0  0  0  0  0  0  0  0  0  0  0
    0.1450   -0.1241   -5.8498 N   0  0  0  0  0  0  0  0  0  0  0  0
   -0.7153   -0.1984   -6.9527 C   0  0  0  0  0  0  0  0  0  0  0  0
   -2.0951   -0.2260   -6.7182 C   0  0  0  0  0  0  0  0  0  0  0  0
   -2.9935   -0.3052   -7.7774 C   0  0  0  0  0  0  0  0  0  0  0  0
   -2.5174   -0.3620   -9.0842 C   0  0  0  0  0  0  0  0  0  0  0  0
   -1.1386   -0.3533   -9.3485 C   0  0  0  0  0  0  0  0  0  0  0  0
   -0.6771   -0.4241  -10.7799 C   0  0  0  0  0  0  0  0  0  0  0  0
   -0.2229   -0.3070   -8.2712 C   0  0  0  0  0  0  0  0  0  0  0  0
    1.2624   -0.3076   -8.5272 C   0  0  0  0  0  0  0  0  0  0  0  0
    0.2683    2.3540   -5.8520 C   0  0  0  0  0  0  0  0  0  0  0  0
   -0.4887    2.9470   -6.8787 C   0  0  0  0  0  0  0  0  0  0  0  0
   -0.4097    4.2854   -6.8720 N   0  0  0  0  0  0  0  0  0  0  0  0
    0.3980    4.5609   -5.8267 N   0  0  0  0  0  0  0  0  0  0  0  0
    0.7035    5.9373   -5.5259 C   0  0  0  0  0  0  0  0  0  0  0  0
    0.8280    3.4315   -5.1984 C   0  0  0  0  0  0  0  0  0  0  0  0
    2.0593    4.1232   -3.6588 H   0  0  0  0  0  0  0  0  0  0  0  0
    2.2308    0.2089   -1.7145 H   0  0  0  0  0  0  0  0  0  0  0  0
    3.6494    0.1333   -2.7929 H   0  0  0  0  0  0  0  0  0  0  0  0
    3.5487    1.4738   -0.0151 H   0  0  0  0  0  0  0  0  0  0  0  0
    4.9161    1.5861   -1.1487 H   0  0  0  0  0  0  0  0  0  0  0  0
    5.0313   -0.8519   -1.0980 H   0  0  0  0  0  0  0  0  0  0  0  0
    6.5576    0.5111    0.1048 H   0  0  0  0  0  0  0  0  0  0  0  0
    5.3902    0.5564    1.4726 H   0  0  0  0  0  0  0  0  0  0  0  0
    6.8072   -1.9657    0.3716 H   0  0  0  0  0  0  0  0  0  0  0  0
    7.1492   -1.1750    1.9176 H   0  0  0  0  0  0  0  0  0  0  0  0
    4.6745   -3.0962    0.1168 H   0  0  0  0  0  0  0  0  0  0  0  0
    3.5535   -3.0758    1.4857 H   0  0  0  0  0  0  0  0  0  0  0  0
    2.8387   -1.4731   -0.3474 H   0  0  0  0  0  0  0  0  0  0  0  0
    3.1712   -0.6158    1.1978 H   0  0  0  0  0  0  0  0  0  0  0  0
    1.6058    0.1033   -3.9746 H   0  0  0  0  0  0  0  0  0  0  0  0
   -2.4709   -0.1809   -5.6998 H   0  0  0  0  0  0  0  0  0  0  0  0
   -4.0634   -0.3201   -7.5865 H   0  0  0  0  0  0  0  0  0  0  0  0
   -3.2336   -0.4168   -9.9024 H   0  0  0  0  0  0  0  0  0  0  0  0
   -0.2446   -1.4076  -10.9883 H   0  0  0  0  0  0  0  0  0  0  0  0
    0.0649    0.3544  -10.9842 H   0  0  0  0  0  0  0  0  0  0  0  0
   -1.5071   -0.2660  -11.4770 H   0  0  0  0  0  0  0  0  0  0  0  0
    1.8260   -0.6768   -7.6647 H   0  0  0  0  0  0  0  0  0  0  0  0
    1.5215   -0.9698   -9.3593 H   0  0  0  0  0  0  0  0  0  0  0  0
    1.6007    0.7073   -8.7580 H   0  0  0  0  0  0  0  0  0  0  0  0
   -1.0981    2.4813   -7.6418 H   0  0  0  0  0  0  0  0  0  0  0  0
    1.4550    6.2828   -6.2398 H   0  0  0  0  0  0  0  0  0  0  0  0
    1.0856    6.0168   -4.5061 H   0  0  0  0  0  0  0  0  0  0  0  0
   -0.2113    6.5289   -5.6177 H   0  0  0  0  0  0  0  0  0  0  0  0
  1  2  1  0
  2  3  2  3
  3  4  1  0
  4  5  1  0
  5  6  1  0
  6  7  1  0
  7  8  1  0
  8  9  1  0
  9 10  1  0
 10 11  1  0
  2 12  1  0
 12 13  1  0
 13 14  2  3
 14 15  1  0
 15 16  2  0
 16 17  1  0
 17 18  2  0
 18 19  1  0
 19 20  1  0
 19 21  2  0
 21 22  1  0
 13 23  1  0
 23 24  1  0
 24 25  2  0
 25 26  1  0
 26 27  1  0
 26 28  1  0
 28  1  1  0
 11  6  1  0
 21 15  1  0
 28 23  2  0
  1 29  1  0
  4 30  1  0
  4 31  1  0
  5 32  1  0
  5 33  1  0
  6 34  1  0
  7 35  1  0
  7 36  1  0
  8 37  1  0
  8 38  1  0
 10 39  1  0
 10 40  1  0
 11 41  1  0
 11 42  1  0
 12 43  1  0
 16 44  1  0
 17 45  1  0
 18 46  1  0
 20 47  1  0
 20 48  1  0
 20 49  1  0
 22 50  1  0
 22 51  1  0
 22 52  1  0
 24 53  1  0
 27 54  1  0
 27 55  1  0
 27 56  1  0
M  CHG  1   6   1
M  END
>  <ScrubInfo>  (9) 
{"isomerGroup": 0, "isomerId": 8, "confId": 0, "nr_conformers:": 1, "nr_isomers:": 9}

$$$$
