REMARK SMILES Cc1cccc(Nc2nc(NCC[NH+]3CCOCC3)nc3c2cnn3C)c1C
REMARK SMILES IDX 11 1 12 3 13 4 14 5 15 6 19 7 16 8 18 9 17 10 10 12 9 13
REMARK SMILES IDX 20 14 8 15 21 16 22 17 25 18 23 19 24 20 26 21 7 22 6 24
REMARK SMILES IDX 5 25 27 26 4 27 2 28 3 29 28 30 1 31
REMARK H PARENT 11 2 14 11 7 23
ROOT
ATOM      1  N   UNL     1       0.770  -0.813   2.047  1.00  0.00    -0.348 N 
ATOM      2  H   UNL     1       0.231  -0.017   2.383  1.00  0.00     0.163 HD
ENDROOT
BRANCH   1   3
ATOM      3  C   UNL     1       2.210  -0.682   1.968  1.00  0.00     0.177 C 
BRANCH   3   4
ATOM      4  C   UNL     1       2.659   0.340   0.901  1.00  0.00     0.283 C 
BRANCH   4   5
ATOM      5  N   UNL     1       4.144   0.656   0.990  1.00  0.00    -0.330 N 
ATOM      6  C   UNL     1       4.490   1.880   0.137  1.00  0.00     0.291 C 
ATOM      7  C   UNL     1       5.032  -0.520   0.582  1.00  0.00     0.291 C 
ATOM      8  C   UNL     1       5.990   2.172   0.237  1.00  0.00     0.221 C 
ATOM      9  C   UNL     1       6.506  -0.103   0.654  1.00  0.00     0.221 C 
ATOM     10  O   UNL     1       6.759   1.037  -0.173  1.00  0.00    -0.370 OA
ATOM     11  H   UNL     1       4.363   0.898   1.965  1.00  0.00     0.348 HD
ENDBRANCH   4   5
ENDBRANCH   3   4
ENDBRANCH   1   3
BRANCH   1  12
ATOM     12  C   UNL     1       0.124  -1.268   0.908  1.00  0.00     0.226 A 
ATOM     13  N   UNL     1      -1.056  -0.680   0.677  1.00  0.00    -0.195 NA
ATOM     14  N   UNL     1       0.732  -2.159   0.113  1.00  0.00    -0.193 NA
ATOM     15  C   UNL     1      -1.805  -1.014  -0.409  1.00  0.00     0.147 A 
ATOM     16  C   UNL     1      -0.025  -2.497  -0.945  1.00  0.00     0.165 A 
ATOM     17  C   UNL     1      -1.265  -1.977  -1.270  1.00  0.00     0.082 A 
ATOM     18  N   UNL     1       0.260  -3.421  -1.915  1.00  0.00    -0.250 N 
ATOM     19  C   UNL     1      -1.614  -2.628  -2.471  1.00  0.00     0.149 A 
ATOM     20  N   UNL     1      -0.681  -3.492  -2.881  1.00  0.00    -0.179 NA
ATOM     21  C   UNL     1       1.413  -4.281  -1.991  1.00  0.00     0.176 C 
BRANCH  15  22
ATOM     22  N   UNL     1      -3.025  -0.381  -0.681  1.00  0.00    -0.339 N 
ATOM     23  H   UNL     1      -3.472  -0.692  -1.532  1.00  0.00     0.168 HD
BRANCH  22  24
ATOM     24  C   UNL     1      -3.853   0.445   0.111  1.00  0.00     0.043 A 
ATOM     25  C   UNL     1      -3.713   0.505   1.505  1.00  0.00     0.026 A 
ATOM     26  C   UNL     1      -4.814   1.288  -0.511  1.00  0.00    -0.025 A 
ATOM     27  C   UNL     1      -4.523   1.330   2.282  1.00  0.00     0.002 A 
ATOM     28  C   UNL     1      -5.659   2.102   0.285  1.00  0.00    -0.046 A 
ATOM     29  C   UNL     1      -5.492   2.119   1.677  1.00  0.00     0.004 A 
ATOM     30  C   UNL     1      -4.964   1.286  -2.015  1.00  0.00     0.047 C 
ATOM     31  C   UNL     1      -6.729   2.977  -0.314  1.00  0.00     0.044 C 
ENDBRANCH  22  24
ENDBRANCH  15  22
ENDBRANCH   1  12
TORSDOF 6
