REMARK SMILES COc1ccc(CNc2nc(Nc3cccc4ccccc34)c3cnn(C)c3n2)cc1
REMARK SMILES IDX 7 1 6 2 3 3 4 4 31 5 5 6 30 7 2 8 1 9 8 10 9 12 10 13 29 14
REMARK SMILES IDX 11 15 28 16 23 17 26 18 24 19 25 20 27 21 12 22 13 24 14 25
REMARK SMILES IDX 22 26 15 27 21 28 17 29 16 30 20 31 18 32 19 33
REMARK H PARENT 8 11 12 23
ROOT
ATOM      1  C   UNL     1       1.359   1.593   1.226  1.00  0.00     0.152 C 
ENDROOT
BRANCH   1   2
ATOM      2  C   UNL     1       2.821   1.237   1.062  1.00  0.00    -0.029 A 
ATOM      3  C   UNL     1       5.560   0.618   0.790  1.00  0.00     0.118 A 
ATOM      4  C   UNL     1       4.753  -0.131   1.646  1.00  0.00     0.047 A 
ATOM      5  C   UNL     1       4.997   1.678   0.077  1.00  0.00     0.047 A 
ATOM      6  C   UNL     1       3.395   0.180   1.783  1.00  0.00     0.009 A 
ATOM      7  C   UNL     1       3.641   1.989   0.211  1.00  0.00     0.009 A 
BRANCH   3   8
ATOM      8  O   UNL     1       6.894   0.421   0.563  1.00  0.00    -0.497 OA
ATOM      9  C   UNL     1       7.509  -0.658   1.256  1.00  0.00     0.278 C 
ENDBRANCH   3   8
ENDBRANCH   1   2
BRANCH   1  10
ATOM     10  N   UNL     1       0.492   0.430   1.161  1.00  0.00    -0.350 N 
ATOM     11  H   UNL     1      -0.375   0.532   1.680  1.00  0.00     0.164 HD
BRANCH  10  12
ATOM     12  C   UNL     1       0.074   0.091  -0.122  1.00  0.00     0.227 A 
ATOM     13  N   UNL     1      -1.216  -0.275  -0.202  1.00  0.00    -0.195 NA
ATOM     14  N   UNL     1       0.928   0.148  -1.149  1.00  0.00    -0.193 NA
ATOM     15  C   UNL     1      -1.764  -0.647  -1.389  1.00  0.00     0.147 A 
ATOM     16  C   UNL     1       0.379  -0.234  -2.309  1.00  0.00     0.165 A 
ATOM     17  C   UNL     1      -0.927  -0.632  -2.509  1.00  0.00     0.082 A 
ATOM     18  N   UNL     1       0.991  -0.312  -3.529  1.00  0.00    -0.250 N 
ATOM     19  C   UNL     1      -1.002  -0.905  -3.890  1.00  0.00     0.149 A 
ATOM     20  N   UNL     1       0.163  -0.717  -4.522  1.00  0.00    -0.179 NA
ATOM     21  C   UNL     1       2.370  -0.016  -3.826  1.00  0.00     0.176 C 
BRANCH  15  22
ATOM     22  N   UNL     1      -3.118  -1.034  -1.475  1.00  0.00    -0.339 N 
ATOM     23  H   UNL     1      -3.255  -1.703  -2.223  1.00  0.00     0.168 HD
BRANCH  22  24
ATOM     24  C   UNL     1      -3.970  -1.276  -0.366  1.00  0.00     0.048 A 
ATOM     25  C   UNL     1      -4.347  -2.607  -0.110  1.00  0.00     0.027 A 
ATOM     26  C   UNL     1      -4.383  -0.244   0.526  1.00  0.00     0.005 A 
ATOM     27  C   UNL     1      -5.124  -2.929   0.998  1.00  0.00     0.003 A 
ATOM     28  C   UNL     1      -4.080   1.124   0.336  1.00  0.00     0.011 A 
ATOM     29  C   UNL     1      -5.172  -0.588   1.653  1.00  0.00    -0.016 A 
ATOM     30  C   UNL     1      -5.530  -1.927   1.874  1.00  0.00     0.009 A 
ATOM     31  C   UNL     1      -4.512   2.107   1.229  1.00  0.00     0.001 A 
ATOM     32  C   UNL     1      -5.598   0.411   2.545  1.00  0.00     0.009 A 
ATOM     33  C   UNL     1      -5.269   1.749   2.336  1.00  0.00     0.001 A 
ENDBRANCH  22  24
ENDBRANCH  15  22
ENDBRANCH  10  12
ENDBRANCH   1  10
TORSDOF 6
