_i0
     RDKit          3D

 53 57  0  0  0  0  0  0  0  0999 V2000
    7.5088   -0.6580    1.2557 C   0  0  0  0  0  0  0  0  0  0  0  0
    6.8945    0.4213    0.5631 O   0  0  0  0  0  0  0  0  0  0  0  0
    5.5599    0.6179    0.7898 C   0  0  0  0  0  0  0  0  0  0  0  0
    4.7529   -0.1307    1.6456 C   0  0  0  0  0  0  0  0  0  0  0  0
    3.3950    0.1800    1.7830 C   0  0  0  0  0  0  0  0  0  0  0  0
    2.8210    1.2371    1.0623 C   0  0  0  0  0  0  0  0  0  0  0  0
    1.3592    1.5926    1.2263 C   0  0  0  0  0  0  0  0  0  0  0  0
    0.4918    0.4303    1.1607 N   0  0  0  0  0  0  0  0  0  0  0  0
    0.0744    0.0911   -0.1222 C   0  0  0  0  0  0  0  0  0  0  0  0
   -1.2157   -0.2747   -0.2023 N   0  0  0  0  0  0  0  0  0  0  0  0
   -1.7645   -0.6467   -1.3891 C   0  0  0  0  0  0  0  0  0  0  0  0
   -3.1177   -1.0345   -1.4754 N   0  0  0  0  0  0  0  0  0  0  0  0
   -3.9699   -1.2765   -0.3658 C   0  0  0  0  0  0  0  0  0  0  0  0
   -4.3467   -2.6065   -0.1104 C   0  0  0  0  0  0  0  0  0  0  0  0
   -5.1238   -2.9289    0.9978 C   0  0  0  0  0  0  0  0  0  0  0  0
   -5.5304   -1.9265    1.8736 C   0  0  0  0  0  0  0  0  0  0  0  0
   -5.1720   -0.5884    1.6535 C   0  0  0  0  0  0  0  0  0  0  0  0
   -5.5981    0.4109    2.5452 C   0  0  0  0  0  0  0  0  0  0  0  0
   -5.2685    1.7493    2.3362 C   0  0  0  0  0  0  0  0  0  0  0  0
   -4.5118    2.1070    1.2289 C   0  0  0  0  0  0  0  0  0  0  0  0
   -4.0800    1.1240    0.3355 C   0  0  0  0  0  0  0  0  0  0  0  0
   -4.3834   -0.2445    0.5257 C   0  0  0  0  0  0  0  0  0  0  0  0
   -0.9268   -0.6322   -2.5085 C   0  0  0  0  0  0  0  0  0  0  0  0
   -1.0017   -0.9047   -3.8899 C   0  0  0  0  0  0  0  0  0  0  0  0
    0.1626   -0.7167   -4.5223 N   0  0  0  0  0  0  0  0  0  0  0  0
    0.9910   -0.3122   -3.5294 N   0  0  0  0  0  0  0  0  0  0  0  0
    2.3701   -0.0157   -3.8262 C   0  0  0  0  0  0  0  0  0  0  0  0
    0.3793   -0.2339   -2.3090 C   0  0  0  0  0  0  0  0  0  0  0  0
    0.9285    0.1477   -1.1493 N   0  0  0  0  0  0  0  0  0  0  0  0
    3.6409    1.9891    0.2112 C   0  0  0  0  0  0  0  0  0  0  0  0
    4.9966    1.6782    0.0768 C   0  0  0  0  0  0  0  0  0  0  0  0
    7.0606   -1.6160    0.9720 H   0  0  0  0  0  0  0  0  0  0  0  0
    7.4673   -0.5063    2.3394 H   0  0  0  0  0  0  0  0  0  0  0  0
    8.5632   -0.6851    0.9642 H   0  0  0  0  0  0  0  0  0  0  0  0
    5.1424   -0.9645    2.2192 H   0  0  0  0  0  0  0  0  0  0  0  0
    2.7759   -0.4190    2.4484 H   0  0  0  0  0  0  0  0  0  0  0  0
    1.0502    2.3638    0.5080 H   0  0  0  0  0  0  0  0  0  0  0  0
    1.2502    2.0475    2.2191 H   0  0  0  0  0  0  0  0  0  0  0  0
   -0.3754    0.5317    1.6802 H   0  0  0  0  0  0  0  0  0  0  0  0
   -3.2554   -1.7032   -2.2232 H   0  0  0  0  0  0  0  0  0  0  0  0
   -4.0152   -3.4068   -0.7667 H   0  0  0  0  0  0  0  0  0  0  0  0
   -5.4028   -3.9621    1.1863 H   0  0  0  0  0  0  0  0  0  0  0  0
   -6.1335   -2.1993    2.7371 H   0  0  0  0  0  0  0  0  0  0  0  0
   -6.1986    0.1515    3.4145 H   0  0  0  0  0  0  0  0  0  0  0  0
   -5.6080    2.5092    3.0346 H   0  0  0  0  0  0  0  0  0  0  0  0
   -4.2565    3.1482    1.0528 H   0  0  0  0  0  0  0  0  0  0  0  0
   -3.4964    1.4351   -0.5275 H   0  0  0  0  0  0  0  0  0  0  0  0
   -1.8571   -1.2320   -4.4661 H   0  0  0  0  0  0  0  0  0  0  0  0
    2.8243   -0.9034   -4.2737 H   0  0  0  0  0  0  0  0  0  0  0  0
    2.9028    0.2493   -2.9101 H   0  0  0  0  0  0  0  0  0  0  0  0
    2.3970    0.8222   -4.5272 H   0  0  0  0  0  0  0  0  0  0  0  0
    3.2294    2.8169   -0.3610 H   0  0  0  0  0  0  0  0  0  0  0  0
    5.6199    2.2670   -0.5913 H   0  0  0  0  0  0  0  0  0  0  0  0
  1  2  1  0
  2  3  1  0
  3  4  2  0
  4  5  1  0
  5  6  2  0
  6  7  1  0
  7  8  1  0
  8  9  1  0
  9 10  2  0
 10 11  1  0
 11 12  1  0
 12 13  1  0
 13 14  2  0
 14 15  1  0
 15 16  2  0
 16 17  1  0
 17 18  2  0
 18 19  1  0
 19 20  2  0
 20 21  1  0
 21 22  2  0
 11 23  2  0
 23 24  1  0
 24 25  2  0
 25 26  1  0
 26 27  1  0
 26 28  1  0
 28 29  2  0
  6 30  1  0
 30 31  2  0
 31  3  1  0
 29  9  1  0
 22 13  1  0
 28 23  1  0
 22 17  1  0
  1 32  1  0
  1 33  1  0
  1 34  1  0
  4 35  1  0
  5 36  1  0
  7 37  1  0
  7 38  1  0
  8 39  1  0
 12 40  1  0
 14 41  1  0
 15 42  1  0
 16 43  1  0
 18 44  1  0
 19 45  1  0
 20 46  1  0
 21 47  1  0
 24 48  1  0
 27 49  1  0
 27 50  1  0
 27 51  1  0
 30 52  1  0
 31 53  1  0
M  END
>  <ScrubInfo>  (1) 
{"isomerGroup": 0, "isomerId": 0, "confId": 0, "nr_conformers:": 1, "nr_isomers:": 9}

$$$$
_i1
     RDKit          3D

 53 57  0  0  0  0  0  0  0  0999 V2000
   -0.1652   -1.4313   -1.2632 N   0  0  0  0  0  0  0  0  0  0  0  0
   -1.1999   -1.8321   -0.4362 C   0  0  0  0  0  0  0  0  0  0  0  0
   -2.0431   -0.9139    0.1683 N   0  0  0  0  0  0  0  0  0  0  0  0
   -1.6427    0.3136    0.7725 C   0  0  0  0  0  0  0  0  0  0  0  0
   -0.3459    0.4792    1.2852 C   0  0  0  0  0  0  0  0  0  0  0  0
    0.0208    1.6545    1.9348 C   0  0  0  0  0  0  0  0  0  0  0  0
   -0.9020    2.6850    2.0835 C   0  0  0  0  0  0  0  0  0  0  0  0
   -2.2060    2.5565    1.5864 C   0  0  0  0  0  0  0  0  0  0  0  0
   -3.1295    3.6032    1.7453 C   0  0  0  0  0  0  0  0  0  0  0  0
   -4.4287    3.4949    1.2518 C   0  0  0  0  0  0  0  0  0  0  0  0
   -4.8208    2.3398    0.5884 C   0  0  0  0  0  0  0  0  0  0  0  0
   -3.9144    1.2899    0.4238 C   0  0  0  0  0  0  0  0  0  0  0  0
   -2.5929    1.3651    0.9216 C   0  0  0  0  0  0  0  0  0  0  0  0
   -1.3389   -3.1552   -0.2983 C   0  0  0  0  0  0  0  0  0  0  0  0
   -2.2013   -4.0949    0.4259 C   0  0  0  0  0  0  0  0  0  0  0  0
   -1.8623   -5.3464    0.2485 N   0  0  0  0  0  0  0  0  0  0  0  0
   -0.7796   -5.3139   -0.6455 N   0  0  0  0  0  0  0  0  0  0  0  0
    0.0253   -6.4990   -0.8180 C   0  0  0  0  0  0  0  0  0  0  0  0
   -0.3689   -4.0344   -0.9845 C   0  0  0  0  0  0  0  0  0  0  0  0
    0.6210   -3.6403   -1.7083 N   0  0  0  0  0  0  0  0  0  0  0  0
    0.7360   -2.2756   -1.8707 C   0  0  0  0  0  0  0  0  0  0  0  0
    1.7260   -1.9427   -2.6182 N   0  0  0  0  0  0  0  0  0  0  0  0
    1.9534   -0.5388   -2.9468 C   0  0  0  0  0  0  0  0  0  0  0  0
    2.4494    0.3180   -1.8044 C   0  0  0  0  0  0  0  0  0  0  0  0
    2.0635    1.6624   -1.7160 C   0  0  0  0  0  0  0  0  0  0  0  0
    2.5306    2.4751   -0.6769 C   0  0  0  0  0  0  0  0  0  0  0  0
    3.3970    1.9560    0.2846 C   0  0  0  0  0  0  0  0  0  0  0  0
    3.9109    2.6359    1.3543 O   0  0  0  0  0  0  0  0  0  0  0  0
    3.6137    4.0242    1.4340 C   0  0  0  0  0  0  0  0  0  0  0  0
    3.7942    0.6208    0.1932 C   0  0  0  0  0  0  0  0  0  0  0  0
    3.3333   -0.1908   -0.8461 C   0  0  0  0  0  0  0  0  0  0  0  0
   -0.0451   -0.4332   -1.3474 H   0  0  0  0  0  0  0  0  0  0  0  0
   -2.7943   -1.3259    0.7172 H   0  0  0  0  0  0  0  0  0  0  0  0
    0.3943   -0.3142    1.2101 H   0  0  0  0  0  0  0  0  0  0  0  0
    1.0282    1.7614    2.3308 H   0  0  0  0  0  0  0  0  0  0  0  0
   -0.5935    3.5929    2.5974 H   0  0  0  0  0  0  0  0  0  0  0  0
   -2.8408    4.5186    2.2579 H   0  0  0  0  0  0  0  0  0  0  0  0
   -5.1302    4.3149    1.3815 H   0  0  0  0  0  0  0  0  0  0  0  0
   -5.8294    2.2543    0.1923 H   0  0  0  0  0  0  0  0  0  0  0  0
   -4.2489    0.4085   -0.1186 H   0  0  0  0  0  0  0  0  0  0  0  0
   -3.0225   -3.7398    1.0610 H   0  0  0  0  0  0  0  0  0  0  0  0
   -0.5946   -7.3999   -0.7636 H   0  0  0  0  0  0  0  0  0  0  0  0
    0.5225   -6.4950   -1.7932 H   0  0  0  0  0  0  0  0  0  0  0  0
    0.7896   -6.5570   -0.0369 H   0  0  0  0  0  0  0  0  0  0  0  0
    1.0402   -0.1099   -3.3799 H   0  0  0  0  0  0  0  0  0  0  0  0
    2.7084   -0.4962   -3.7413 H   0  0  0  0  0  0  0  0  0  0  0  0
    1.3940    2.0920   -2.4586 H   0  0  0  0  0  0  0  0  0  0  0  0
    2.1935    3.5057   -0.6472 H   0  0  0  0  0  0  0  0  0  0  0  0
    3.9835    4.5603    0.5536 H   0  0  0  0  0  0  0  0  0  0  0  0
    2.5407    4.1891    1.5765 H   0  0  0  0  0  0  0  0  0  0  0  0
    4.1308    4.4268    2.3103 H   0  0  0  0  0  0  0  0  0  0  0  0
    4.4749    0.2078    0.9335 H   0  0  0  0  0  0  0  0  0  0  0  0
    3.6655   -1.2261   -0.9047 H   0  0  0  0  0  0  0  0  0  0  0  0
  1  2  1  0
  2  3  1  0
  3  4  1  0
  4  5  2  0
  5  6  1  0
  6  7  2  0
  7  8  1  0
  8  9  2  0
  9 10  1  0
 10 11  2  0
 11 12  1  0
 12 13  2  0
  2 14  2  0
 14 15  1  0
 15 16  2  0
 16 17  1  0
 17 18  1  0
 17 19  1  0
 19 20  2  0
 20 21  1  0
 21 22  2  3
 22 23  1  0
 23 24  1  0
 24 25  2  0
 25 26  1  0
 26 27  2  0
 27 28  1  0
 28 29  1  0
 27 30  1  0
 30 31  2  0
 21  1  1  0
 31 24  1  0
 13  4  1  0
 19 14  1  0
 13  8  1  0
  1 32  1  0
  3 33  1  0
  5 34  1  0
  6 35  1  0
  7 36  1  0
  9 37  1  0
 10 38  1  0
 11 39  1  0
 12 40  1  0
 15 41  1  0
 18 42  1  0
 18 43  1  0
 18 44  1  0
 23 45  1  0
 23 46  1  0
 25 47  1  0
 26 48  1  0
 29 49  1  0
 29 50  1  0
 29 51  1  0
 30 52  1  0
 31 53  1  0
M  END
>  <ScrubInfo>  (2) 
{"isomerGroup": 0, "isomerId": 1, "confId": 0, "nr_conformers:": 1, "nr_isomers:": 9}

$$$$
_i2
     RDKit          3D

 53 57  0  0  0  0  0  0  0  0999 V2000
    0.0544   -1.4700   -0.9035 N   0  0  0  0  0  0  0  0  0  0  0  0
   -0.2451   -1.7498   -2.2170 C   0  0  0  0  0  0  0  0  0  0  0  0
   -1.0985   -0.8886   -2.8468 N   0  0  0  0  0  0  0  0  0  0  0  0
   -0.8464    0.5448   -2.8983 C   0  0  0  0  0  0  0  0  0  0  0  0
   -1.4313    1.2679   -1.7094 C   0  0  0  0  0  0  0  0  0  0  0  0
   -2.7347    1.0038   -1.2676 C   0  0  0  0  0  0  0  0  0  0  0  0
   -3.2739    1.7075   -0.1881 C   0  0  0  0  0  0  0  0  0  0  0  0
   -2.5343    2.7000    0.4561 C   0  0  0  0  0  0  0  0  0  0  0  0
   -3.1815    3.3195    1.4892 O   0  0  0  0  0  0  0  0  0  0  0  0
   -2.5472    4.4640    2.0455 C   0  0  0  0  0  0  0  0  0  0  0  0
   -1.2380    2.9707    0.0211 C   0  0  0  0  0  0  0  0  0  0  0  0
   -0.6899    2.2593   -1.0525 C   0  0  0  0  0  0  0  0  0  0  0  0
    0.2173   -2.7819   -2.8814 N   0  0  0  0  0  0  0  0  0  0  0  0
    1.0526   -3.5340   -2.1107 C   0  0  0  0  0  0  0  0  0  0  0  0
    1.4080   -3.3294   -0.7922 C   0  0  0  0  0  0  0  0  0  0  0  0
    2.2832   -4.3774   -0.4766 C   0  0  0  0  0  0  0  0  0  0  0  0
    2.4856   -5.1985   -1.5160 N   0  0  0  0  0  0  0  0  0  0  0  0
    1.7167   -4.6647   -2.4981 N   0  0  0  0  0  0  0  0  0  0  0  0
    1.6759   -5.3048   -3.7883 C   0  0  0  0  0  0  0  0  0  0  0  0
    0.8647   -2.2083   -0.0681 C   0  0  0  0  0  0  0  0  0  0  0  0
    1.1844   -2.0668    1.1740 N   0  0  0  0  0  0  0  0  0  0  0  0
    0.6361   -0.9755    1.8735 C   0  0  0  0  0  0  0  0  0  0  0  0
   -0.5912   -1.1565    2.5227 C   0  0  0  0  0  0  0  0  0  0  0  0
   -1.1768   -0.1156    3.2354 C   0  0  0  0  0  0  0  0  0  0  0  0
   -0.5298    1.1153    3.3194 C   0  0  0  0  0  0  0  0  0  0  0  0
    0.7081    1.3236    2.6914 C   0  0  0  0  0  0  0  0  0  0  0  0
    1.3600    2.5649    2.7850 C   0  0  0  0  0  0  0  0  0  0  0  0
    2.5887    2.7786    2.1603 C   0  0  0  0  0  0  0  0  0  0  0  0
    3.1862    1.7518    1.4394 C   0  0  0  0  0  0  0  0  0  0  0  0
    2.5540    0.5110    1.3422 C   0  0  0  0  0  0  0  0  0  0  0  0
    1.3068    0.2705    1.9577 C   0  0  0  0  0  0  0  0  0  0  0  0
   -0.4643   -0.7223   -0.4682 H   0  0  0  0  0  0  0  0  0  0  0  0
   -1.2542   -1.2453   -3.7871 H   0  0  0  0  0  0  0  0  0  0  0  0
    0.2316    0.7293   -2.9829 H   0  0  0  0  0  0  0  0  0  0  0  0
   -1.3109    0.9570   -3.8022 H   0  0  0  0  0  0  0  0  0  0  0  0
   -3.3395    0.2446   -1.7602 H   0  0  0  0  0  0  0  0  0  0  0  0
   -4.2846    1.4869    0.1468 H   0  0  0  0  0  0  0  0  0  0  0  0
   -1.6194    4.1901    2.5571 H   0  0  0  0  0  0  0  0  0  0  0  0
   -3.2238    4.8912    2.7918 H   0  0  0  0  0  0  0  0  0  0  0  0
   -2.3665    5.2290    1.2829 H   0  0  0  0  0  0  0  0  0  0  0  0
   -0.6195    3.7219    0.5009 H   0  0  0  0  0  0  0  0  0  0  0  0
    0.3264    2.4904   -1.3667 H   0  0  0  0  0  0  0  0  0  0  0  0
    2.7812   -4.5776    0.4632 H   0  0  0  0  0  0  0  0  0  0  0  0
    1.0033   -4.7624   -4.4562 H   0  0  0  0  0  0  0  0  0  0  0  0
    1.3165   -6.3281   -3.6533 H   0  0  0  0  0  0  0  0  0  0  0  0
    2.6872   -5.3068   -4.2028 H   0  0  0  0  0  0  0  0  0  0  0  0
   -1.0879   -2.1222    2.4720 H   0  0  0  0  0  0  0  0  0  0  0  0
   -2.1330   -0.2638    3.7301 H   0  0  0  0  0  0  0  0  0  0  0  0
   -1.0037    1.9151    3.8843 H   0  0  0  0  0  0  0  0  0  0  0  0
    0.9141    3.3771    3.3547 H   0  0  0  0  0  0  0  0  0  0  0  0
    3.0836    3.7423    2.2473 H   0  0  0  0  0  0  0  0  0  0  0  0
    4.1501    1.9070    0.9616 H   0  0  0  0  0  0  0  0  0  0  0  0
    3.0489   -0.2850    0.7885 H   0  0  0  0  0  0  0  0  0  0  0  0
  1  2  1  0
  2  3  1  0
  3  4  1  0
  4  5  1  0
  5  6  2  0
  6  7  1  0
  7  8  2  0
  8  9  1  0
  9 10  1  0
  8 11  1  0
 11 12  2  0
  2 13  2  0
 13 14  1  0
 14 15  2  0
 15 16  1  0
 16 17  2  0
 17 18  1  0
 18 19  1  0
 15 20  1  0
 20 21  2  3
 21 22  1  0
 22 23  2  0
 23 24  1  0
 24 25  2  0
 25 26  1  0
 26 27  2  0
 27 28  1  0
 28 29  2  0
 29 30  1  0
 30 31  2  0
 20  1  1  0
 31 22  1  0
 12  5  1  0
 18 14  1  0
 31 26  1  0
  1 32  1  0
  3 33  1  0
  4 34  1  0
  4 35  1  0
  6 36  1  0
  7 37  1  0
 10 38  1  0
 10 39  1  0
 10 40  1  0
 11 41  1  0
 12 42  1  0
 16 43  1  0
 19 44  1  0
 19 45  1  0
 19 46  1  0
 23 47  1  0
 24 48  1  0
 25 49  1  0
 27 50  1  0
 28 51  1  0
 29 52  1  0
 30 53  1  0
M  END
>  <ScrubInfo>  (3) 
{"isomerGroup": 0, "isomerId": 2, "confId": 0, "nr_conformers:": 1, "nr_isomers:": 9}

$$$$
_i3
     RDKit          3D

 53 57  0  0  0  0  0  0  0  0999 V2000
    0.9947   -1.5056   -1.2471 N   0  0  0  0  0  0  0  0  0  0  0  0
    0.9576   -0.3684   -2.0391 C   0  0  0  0  0  0  0  0  0  0  0  0
    1.9239    0.1129   -2.7370 N   0  0  0  0  0  0  0  0  0  0  0  0
    3.2098   -0.5756   -2.7956 C   0  0  0  0  0  0  0  0  0  0  0  0
    3.9973   -0.5780   -1.5046 C   0  0  0  0  0  0  0  0  0  0  0  0
    3.9943    0.5345   -0.6531 C   0  0  0  0  0  0  0  0  0  0  0  0
    4.7236    0.5261    0.5410 C   0  0  0  0  0  0  0  0  0  0  0  0
    5.4783   -0.5920    0.8930 C   0  0  0  0  0  0  0  0  0  0  0  0
    6.2296   -0.7330    2.0269 O   0  0  0  0  0  0  0  0  0  0  0  0
    6.2711    0.3806    2.9107 C   0  0  0  0  0  0  0  0  0  0  0  0
    5.5016   -1.6952    0.0369 C   0  0  0  0  0  0  0  0  0  0  0  0
    4.7744   -1.6893   -1.1558 C   0  0  0  0  0  0  0  0  0  0  0  0
   -0.2004    0.3917   -2.1448 N   0  0  0  0  0  0  0  0  0  0  0  0
   -1.2571    0.0606   -1.4588 C   0  0  0  0  0  0  0  0  0  0  0  0
   -2.4378    0.7554   -1.5297 N   0  0  0  0  0  0  0  0  0  0  0  0
   -3.0578    1.3747   -0.3993 C   0  0  0  0  0  0  0  0  0  0  0  0
   -2.2942    1.7853    0.7062 C   0  0  0  0  0  0  0  0  0  0  0  0
   -2.8895    2.4510    1.7738 C   0  0  0  0  0  0  0  0  0  0  0  0
   -4.2514    2.7382    1.7419 C   0  0  0  0  0  0  0  0  0  0  0  0
   -5.0382    2.3705    0.6411 C   0  0  0  0  0  0  0  0  0  0  0  0
   -6.4086    2.6782    0.6131 C   0  0  0  0  0  0  0  0  0  0  0  0
   -7.2024    2.3194   -0.4755 C   0  0  0  0  0  0  0  0  0  0  0  0
   -6.6370    1.6450   -1.5500 C   0  0  0  0  0  0  0  0  0  0  0  0
   -5.2763    1.3311   -1.5365 C   0  0  0  0  0  0  0  0  0  0  0  0
   -4.4456    1.6863   -0.4496 C   0  0  0  0  0  0  0  0  0  0  0  0
   -1.2536   -1.1109   -0.6156 C   0  0  0  0  0  0  0  0  0  0  0  0
   -2.1473   -1.7955    0.2214 C   0  0  0  0  0  0  0  0  0  0  0  0
   -1.5841   -2.8713    0.7957 N   0  0  0  0  0  0  0  0  0  0  0  0
   -0.3177   -2.8727    0.3107 N   0  0  0  0  0  0  0  0  0  0  0  0
    0.5929   -3.9073    0.7301 C   0  0  0  0  0  0  0  0  0  0  0  0
   -0.1015   -1.8422   -0.5473 C   0  0  0  0  0  0  0  0  0  0  0  0
    1.8861   -1.9667   -1.1389 H   0  0  0  0  0  0  0  0  0  0  0  0
    3.8255   -0.0803   -3.5562 H   0  0  0  0  0  0  0  0  0  0  0  0
    3.0575   -1.6021   -3.1539 H   0  0  0  0  0  0  0  0  0  0  0  0
    3.4134    1.4175   -0.9172 H   0  0  0  0  0  0  0  0  0  0  0  0
    4.6798    1.4102    1.1679 H   0  0  0  0  0  0  0  0  0  0  0  0
    6.7038    1.2589    2.4202 H   0  0  0  0  0  0  0  0  0  0  0  0
    6.9196    0.1159    3.7514 H   0  0  0  0  0  0  0  0  0  0  0  0
    5.2771    0.6012    3.3137 H   0  0  0  0  0  0  0  0  0  0  0  0
    6.1007   -2.5641    0.2991 H   0  0  0  0  0  0  0  0  0  0  0  0
    4.8264   -2.5569   -1.8098 H   0  0  0  0  0  0  0  0  0  0  0  0
   -2.3394    1.4816   -2.2386 H   0  0  0  0  0  0  0  0  0  0  0  0
   -1.2231    1.6002    0.7453 H   0  0  0  0  0  0  0  0  0  0  0  0
   -2.2893    2.7546    2.6278 H   0  0  0  0  0  0  0  0  0  0  0  0
   -4.6958    3.2623    2.5858 H   0  0  0  0  0  0  0  0  0  0  0  0
   -6.8714    3.2038    1.4459 H   0  0  0  0  0  0  0  0  0  0  0  0
   -8.2613    2.5641   -0.4810 H   0  0  0  0  0  0  0  0  0  0  0  0
   -7.2521    1.3572   -2.3986 H   0  0  0  0  0  0  0  0  0  0  0  0
   -4.8672    0.7899   -2.3874 H   0  0  0  0  0  0  0  0  0  0  0  0
   -3.1803   -1.5623    0.4464 H   0  0  0  0  0  0  0  0  0  0  0  0
    0.6692   -3.8788    1.8200 H   0  0  0  0  0  0  0  0  0  0  0  0
    0.1951   -4.8699    0.3993 H   0  0  0  0  0  0  0  0  0  0  0  0
    1.5771   -3.7404    0.2874 H   0  0  0  0  0  0  0  0  0  0  0  0
  1  2  1  0
  2  3  2  3
  3  4  1  0
  4  5  1  0
  5  6  2  0
  6  7  1  0
  7  8  2  0
  8  9  1  0
  9 10  1  0
  8 11  1  0
 11 12  2  0
  2 13  1  0
 13 14  2  0
 14 15  1  0
 15 16  1  0
 16 17  2  0
 17 18  1  0
 18 19  2  0
 19 20  1  0
 20 21  2  0
 21 22  1  0
 22 23  2  0
 23 24  1  0
 24 25  2  0
 14 26  1  0
 26 27  1  0
 27 28  2  0
 28 29  1  0
 29 30  1  0
 29 31  1  0
 31  1  1  0
 12  5  1  0
 25 16  1  0
 31 26  2  0
 25 20  1  0
  1 32  1  0
  4 33  1  0
  4 34  1  0
  6 35  1  0
  7 36  1  0
 10 37  1  0
 10 38  1  0
 10 39  1  0
 11 40  1  0
 12 41  1  0
 15 42  1  0
 17 43  1  0
 18 44  1  0
 19 45  1  0
 21 46  1  0
 22 47  1  0
 23 48  1  0
 24 49  1  0
 27 50  1  0
 30 51  1  0
 30 52  1  0
 30 53  1  0
M  END
>  <ScrubInfo>  (4) 
{"isomerGroup": 0, "isomerId": 3, "confId": 0, "nr_conformers:": 1, "nr_isomers:": 9}

$$$$
_i4
     RDKit          3D

 53 57  0  0  0  0  0  0  0  0999 V2000
   -2.8299   -0.9990   -3.0644 N   0  0  0  0  0  0  0  0  0  0  0  0
   -3.0033   -0.2147   -1.9283 C   0  0  0  0  0  0  0  0  0  0  0  0
   -1.8719   -0.0199   -1.2334 C   0  0  0  0  0  0  0  0  0  0  0  0
   -1.4117    0.6874   -0.0451 C   0  0  0  0  0  0  0  0  0  0  0  0
   -2.0611    1.3833    0.8282 N   0  0  0  0  0  0  0  0  0  0  0  0
   -3.4515    1.5448    0.7180 C   0  0  0  0  0  0  0  0  0  0  0  0
   -3.9316    2.6884    0.0676 C   0  0  0  0  0  0  0  0  0  0  0  0
   -5.2988    2.9008   -0.0797 C   0  0  0  0  0  0  0  0  0  0  0  0
   -6.2026    1.9731    0.4347 C   0  0  0  0  0  0  0  0  0  0  0  0
   -5.7532    0.8304    1.1154 C   0  0  0  0  0  0  0  0  0  0  0  0
   -6.6686   -0.0954    1.6434 C   0  0  0  0  0  0  0  0  0  0  0  0
   -6.2282   -1.2269    2.3305 C   0  0  0  0  0  0  0  0  0  0  0  0
   -4.8669   -1.4458    2.5038 C   0  0  0  0  0  0  0  0  0  0  0  0
   -3.9450   -0.5357    1.9841 C   0  0  0  0  0  0  0  0  0  0  0  0
   -4.3626    0.6115    1.2756 C   0  0  0  0  0  0  0  0  0  0  0  0
   -0.0619    0.5936    0.1667 N   0  0  0  0  0  0  0  0  0  0  0  0
    0.7353   -0.0986   -0.5874 C   0  0  0  0  0  0  0  0  0  0  0  0
    2.0695   -0.1505   -0.3182 N   0  0  0  0  0  0  0  0  0  0  0  0
    2.7230    0.8280    0.5166 C   0  0  0  0  0  0  0  0  0  0  0  0
    4.1964    0.5089    0.6005 C   0  0  0  0  0  0  0  0  0  0  0  0
    4.6494   -0.5389    1.4145 C   0  0  0  0  0  0  0  0  0  0  0  0
    6.0108   -0.8553    1.4839 C   0  0  0  0  0  0  0  0  0  0  0  0
    6.9374   -0.1309    0.7347 C   0  0  0  0  0  0  0  0  0  0  0  0
    8.2895   -0.3354    0.7096 O   0  0  0  0  0  0  0  0  0  0  0  0
    8.7968   -1.3727    1.5394 C   0  0  0  0  0  0  0  0  0  0  0  0
    6.4889    0.9075   -0.0848 C   0  0  0  0  0  0  0  0  0  0  0  0
    5.1303    1.2259   -0.1566 C   0  0  0  0  0  0  0  0  0  0  0  0
    0.3574   -0.8206   -1.6864 N   0  0  0  0  0  0  0  0  0  0  0  0
   -0.8910   -0.8105   -2.0002 C   0  0  0  0  0  0  0  0  0  0  0  0
   -1.5267   -1.4742   -3.0504 N   0  0  0  0  0  0  0  0  0  0  0  0
   -0.8466   -1.7102   -4.3088 C   0  0  0  0  0  0  0  0  0  0  0  0
   -3.5634   -1.7029   -3.1788 H   0  0  0  0  0  0  0  0  0  0  0  0
   -3.9953    0.1517   -1.7090 H   0  0  0  0  0  0  0  0  0  0  0  0
   -3.2249    3.4159   -0.3241 H   0  0  0  0  0  0  0  0  0  0  0  0
   -5.6592    3.7908   -0.5885 H   0  0  0  0  0  0  0  0  0  0  0  0
   -7.2682    2.1566    0.3125 H   0  0  0  0  0  0  0  0  0  0  0  0
   -7.7389    0.0623    1.5282 H   0  0  0  0  0  0  0  0  0  0  0  0
   -6.9490   -1.9310    2.7378 H   0  0  0  0  0  0  0  0  0  0  0  0
   -4.5174   -2.3188    3.0486 H   0  0  0  0  0  0  0  0  0  0  0  0
   -2.8835   -0.7182    2.1452 H   0  0  0  0  0  0  0  0  0  0  0  0
    2.6158   -0.5073   -1.0911 H   0  0  0  0  0  0  0  0  0  0  0  0
    2.2977    0.8281    1.5277 H   0  0  0  0  0  0  0  0  0  0  0  0
    2.5805    1.8348    0.1057 H   0  0  0  0  0  0  0  0  0  0  0  0
    3.9360   -1.1196    1.9971 H   0  0  0  0  0  0  0  0  0  0  0  0
    6.3099   -1.6741    2.1293 H   0  0  0  0  0  0  0  0  0  0  0  0
    8.4013   -2.3483    1.2379 H   0  0  0  0  0  0  0  0  0  0  0  0
    9.8833   -1.4009    1.4126 H   0  0  0  0  0  0  0  0  0  0  0  0
    8.5902   -1.1706    2.5957 H   0  0  0  0  0  0  0  0  0  0  0  0
    7.2060    1.4738   -0.6742 H   0  0  0  0  0  0  0  0  0  0  0  0
    4.8101    2.0368   -0.8069 H   0  0  0  0  0  0  0  0  0  0  0  0
   -0.6247   -0.7647   -4.8146 H   0  0  0  0  0  0  0  0  0  0  0  0
    0.0923   -2.2487   -4.1446 H   0  0  0  0  0  0  0  0  0  0  0  0
   -1.4701   -2.3205   -4.9702 H   0  0  0  0  0  0  0  0  0  0  0  0
  1  2  1  0
  2  3  2  0
  3  4  1  0
  4  5  2  3
  5  6  1  0
  6  7  2  0
  7  8  1  0
  8  9  2  0
  9 10  1  0
 10 11  2  0
 11 12  1  0
 12 13  2  0
 13 14  1  0
 14 15  2  0
  4 16  1  0
 16 17  2  0
 17 18  1  0
 18 19  1  0
 19 20  1  0
 20 21  2  0
 21 22  1  0
 22 23  2  0
 23 24  1  0
 24 25  1  0
 23 26  1  0
 26 27  2  0
 17 28  1  0
 28 29  2  0
 29 30  1  0
 30 31  1  0
 30  1  1  0
 29  3  1  0
 15  6  1  0
 27 20  1  0
 15 10  1  0
  1 32  1  0
  2 33  1  0
  7 34  1  0
  8 35  1  0
  9 36  1  0
 11 37  1  0
 12 38  1  0
 13 39  1  0
 14 40  1  0
 18 41  1  0
 19 42  1  0
 19 43  1  0
 21 44  1  0
 22 45  1  0
 25 46  1  0
 25 47  1  0
 25 48  1  0
 26 49  1  0
 27 50  1  0
 31 51  1  0
 31 52  1  0
 31 53  1  0
M  END
>  <ScrubInfo>  (5) 
{"isomerGroup": 0, "isomerId": 4, "confId": 0, "nr_conformers:": 1, "nr_isomers:": 9}

$$$$
_i5
     RDKit          3D

 53 57  0  0  0  0  0  0  0  0999 V2000
    0.3908   -1.6453   -0.2577 N   0  0  0  0  0  0  0  0  0  0  0  0
    0.6793   -0.4347    0.3206 C   0  0  0  0  0  0  0  0  0  0  0  0
    2.0055   -0.1170    0.3616 N   0  0  0  0  0  0  0  0  0  0  0  0
    2.7913   -0.0570   -0.8613 C   0  0  0  0  0  0  0  0  0  0  0  0
    4.1832    0.4353   -0.5500 C   0  0  0  0  0  0  0  0  0  0  0  0
    5.0430   -0.3209    0.2600 C   0  0  0  0  0  0  0  0  0  0  0  0
    6.3358    0.1296    0.5513 C   0  0  0  0  0  0  0  0  0  0  0  0
    6.7869    1.3440    0.0362 C   0  0  0  0  0  0  0  0  0  0  0  0
    8.0204    1.8977    0.2405 O   0  0  0  0  0  0  0  0  0  0  0  0
    8.9132    1.1840    1.0865 C   0  0  0  0  0  0  0  0  0  0  0  0
    5.9337    2.1010   -0.7695 C   0  0  0  0  0  0  0  0  0  0  0  0
    4.6418    1.6552   -1.0609 C   0  0  0  0  0  0  0  0  0  0  0  0
   -0.1920    0.3899    0.8256 N   0  0  0  0  0  0  0  0  0  0  0  0
   -1.5461    0.0747    0.7933 C   0  0  0  0  0  0  0  0  0  0  0  0
   -2.3442    0.9733    1.2759 N   0  0  0  0  0  0  0  0  0  0  0  0
   -3.7347    0.8004    1.3106 C   0  0  0  0  0  0  0  0  0  0  0  0
   -4.3035    0.2612    2.4717 C   0  0  0  0  0  0  0  0  0  0  0  0
   -5.6787    0.0724    2.5673 C   0  0  0  0  0  0  0  0  0  0  0  0
   -6.5027    0.4368    1.5042 C   0  0  0  0  0  0  0  0  0  0  0  0
   -5.9661    1.0083    0.3395 C   0  0  0  0  0  0  0  0  0  0  0  0
   -6.8027    1.3873   -0.7236 C   0  0  0  0  0  0  0  0  0  0  0  0
   -6.2766    1.9661   -1.8787 C   0  0  0  0  0  0  0  0  0  0  0  0
   -4.9073    2.1780   -1.9853 C   0  0  0  0  0  0  0  0  0  0  0  0
   -4.0627    1.8049   -0.9385 C   0  0  0  0  0  0  0  0  0  0  0  0
   -4.5672    1.2084    0.2372 C   0  0  0  0  0  0  0  0  0  0  0  0
   -1.8984   -1.2177    0.2264 C   0  0  0  0  0  0  0  0  0  0  0  0
   -3.0599   -1.9838    0.0162 C   0  0  0  0  0  0  0  0  0  0  0  0
   -2.8045   -3.1753   -0.5490 N   0  0  0  0  0  0  0  0  0  0  0  0
   -1.4634   -3.1713   -0.7138 N   0  0  0  0  0  0  0  0  0  0  0  0
   -0.8292   -4.3165   -1.3151 C   0  0  0  0  0  0  0  0  0  0  0  0
   -0.8998   -2.0192   -0.2683 C   0  0  0  0  0  0  0  0  0  0  0  0
    1.1625   -2.2834   -0.3960 H   0  0  0  0  0  0  0  0  0  0  0  0
    2.0989    0.7638    0.8675 H   0  0  0  0  0  0  0  0  0  0  0  0
    2.3026    0.6090   -1.5827 H   0  0  0  0  0  0  0  0  0  0  0  0
    2.8659   -1.0457   -1.3292 H   0  0  0  0  0  0  0  0  0  0  0  0
    4.7038   -1.2662    0.6795 H   0  0  0  0  0  0  0  0  0  0  0  0
    6.9606   -0.4905    1.1851 H   0  0  0  0  0  0  0  0  0  0  0  0
    9.8393    1.7624    1.1588 H   0  0  0  0  0  0  0  0  0  0  0  0
    8.5042    1.0825    2.0972 H   0  0  0  0  0  0  0  0  0  0  0  0
    9.1635    0.2068    0.6605 H   0  0  0  0  0  0  0  0  0  0  0  0
    6.2786    3.0509   -1.1716 H   0  0  0  0  0  0  0  0  0  0  0  0
    4.0012    2.2727   -1.6869 H   0  0  0  0  0  0  0  0  0  0  0  0
   -3.6604   -0.0126    3.3044 H   0  0  0  0  0  0  0  0  0  0  0  0
   -6.1080   -0.3535    3.4701 H   0  0  0  0  0  0  0  0  0  0  0  0
   -7.5758    0.2819    1.5961 H   0  0  0  0  0  0  0  0  0  0  0  0
   -7.8780    1.2366   -0.6575 H   0  0  0  0  0  0  0  0  0  0  0  0
   -6.9376    2.2560   -2.6910 H   0  0  0  0  0  0  0  0  0  0  0  0
   -4.4924    2.6364   -2.8788 H   0  0  0  0  0  0  0  0  0  0  0  0
   -2.9947    1.9903   -1.0376 H   0  0  0  0  0  0  0  0  0  0  0  0
   -4.0893   -1.7478    0.2488 H   0  0  0  0  0  0  0  0  0  0  0  0
   -0.9096   -5.1562   -0.6204 H   0  0  0  0  0  0  0  0  0  0  0  0
    0.2214   -4.0975   -1.5167 H   0  0  0  0  0  0  0  0  0  0  0  0
   -1.3418   -4.5457   -2.2529 H   0  0  0  0  0  0  0  0  0  0  0  0
  1  2  1  0
  2  3  1  0
  3  4  1  0
  4  5  1  0
  5  6  2  0
  6  7  1  0
  7  8  2  0
  8  9  1  0
  9 10  1  0
  8 11  1  0
 11 12  2  0
  2 13  2  0
 13 14  1  0
 14 15  2  3
 15 16  1  0
 16 17  2  0
 17 18  1  0
 18 19  2  0
 19 20  1  0
 20 21  2  0
 21 22  1  0
 22 23  2  0
 23 24  1  0
 24 25  2  0
 14 26  1  0
 26 27  1  0
 27 28  2  0
 28 29  1  0
 29 30  1  0
 29 31  1  0
 31  1  1  0
 12  5  1  0
 25 16  1  0
 31 26  2  0
 25 20  1  0
  1 32  1  0
  3 33  1  0
  4 34  1  0
  4 35  1  0
  6 36  1  0
  7 37  1  0
 10 38  1  0
 10 39  1  0
 10 40  1  0
 11 41  1  0
 12 42  1  0
 17 43  1  0
 18 44  1  0
 19 45  1  0
 21 46  1  0
 22 47  1  0
 23 48  1  0
 24 49  1  0
 27 50  1  0
 30 51  1  0
 30 52  1  0
 30 53  1  0
M  END
>  <ScrubInfo>  (6) 
{"isomerGroup": 0, "isomerId": 5, "confId": 0, "nr_conformers:": 1, "nr_isomers:": 9}

$$$$
_i6
     RDKit          3D

 53 57  0  0  0  0  0  0  0  0999 V2000
   -1.0337   -2.2834    1.8994 N   0  0  0  0  0  0  0  0  0  0  0  0
   -1.6392   -1.1651    1.3369 C   0  0  0  0  0  0  0  0  0  0  0  0
   -1.0194   -0.7401    0.2284 C   0  0  0  0  0  0  0  0  0  0  0  0
   -1.1425    0.3257   -0.7631 C   0  0  0  0  0  0  0  0  0  0  0  0
   -2.1638    1.2518   -0.7646 N   0  0  0  0  0  0  0  0  0  0  0  0
   -3.5394    0.9018   -0.6514 C   0  0  0  0  0  0  0  0  0  0  0  0
   -4.0234   -0.2829   -1.2311 C   0  0  0  0  0  0  0  0  0  0  0  0
   -5.3795   -0.5936   -1.1895 C   0  0  0  0  0  0  0  0  0  0  0  0
   -6.2760    0.2880   -0.5916 C   0  0  0  0  0  0  0  0  0  0  0  0
   -5.8327    1.4966   -0.0354 C   0  0  0  0  0  0  0  0  0  0  0  0
   -6.7478    2.3882    0.5486 C   0  0  0  0  0  0  0  0  0  0  0  0
   -6.3203    3.5950    1.1011 C   0  0  0  0  0  0  0  0  0  0  0  0
   -4.9714    3.9256    1.0791 C   0  0  0  0  0  0  0  0  0  0  0  0
   -4.0494    3.0491    0.5032 C   0  0  0  0  0  0  0  0  0  0  0  0
   -4.4534    1.8213   -0.0676 C   0  0  0  0  0  0  0  0  0  0  0  0
   -0.2214    0.4249   -1.6810 N   0  0  0  0  0  0  0  0  0  0  0  0
    0.8248   -0.4745   -1.6772 C   0  0  0  0  0  0  0  0  0  0  0  0
    1.7484   -0.1866   -2.5237 N   0  0  0  0  0  0  0  0  0  0  0  0
    2.9127   -1.0673   -2.6027 C   0  0  0  0  0  0  0  0  0  0  0  0
    3.9492   -0.7996   -1.5342 C   0  0  0  0  0  0  0  0  0  0  0  0
    4.4082    0.5023   -1.2957 C   0  0  0  0  0  0  0  0  0  0  0  0
    5.3742    0.7538   -0.3151 C   0  0  0  0  0  0  0  0  0  0  0  0
    5.8984   -0.2969    0.4375 C   0  0  0  0  0  0  0  0  0  0  0  0
    6.8416   -0.1902    1.4229 O   0  0  0  0  0  0  0  0  0  0  0  0
    7.3372    1.1146    1.6941 C   0  0  0  0  0  0  0  0  0  0  0  0
    5.4480   -1.5973    0.1988 C   0  0  0  0  0  0  0  0  0  0  0  0
    4.4831   -1.8500   -0.7795 C   0  0  0  0  0  0  0  0  0  0  0  0
    0.9448   -1.5916   -0.8818 N   0  0  0  0  0  0  0  0  0  0  0  0
    0.0703   -1.7211    0.0540 C   0  0  0  0  0  0  0  0  0  0  0  0
   -0.0316   -2.7128    1.0317 N   0  0  0  0  0  0  0  0  0  0  0  0
    1.1677   -3.3102    1.5927 C   0  0  0  0  0  0  0  0  0  0  0  0
   -1.6985   -2.9954    2.2100 H   0  0  0  0  0  0  0  0  0  0  0  0
   -2.5213   -0.7489    1.8031 H   0  0  0  0  0  0  0  0  0  0  0  0
   -2.0508    1.8917   -1.5496 H   0  0  0  0  0  0  0  0  0  0  0  0
   -3.3490   -0.9701   -1.7372 H   0  0  0  0  0  0  0  0  0  0  0  0
   -5.7404   -1.5164   -1.6369 H   0  0  0  0  0  0  0  0  0  0  0  0
   -7.3330    0.0293   -0.5749 H   0  0  0  0  0  0  0  0  0  0  0  0
   -7.8089    2.1486    0.5760 H   0  0  0  0  0  0  0  0  0  0  0  0
   -7.0411    4.2744    1.5485 H   0  0  0  0  0  0  0  0  0  0  0  0
   -4.6319    4.8634    1.5113 H   0  0  0  0  0  0  0  0  0  0  0  0
   -2.9984    3.3317    0.5113 H   0  0  0  0  0  0  0  0  0  0  0  0
    3.3943   -0.8988   -3.5744 H   0  0  0  0  0  0  0  0  0  0  0  0
    2.6177   -2.1247   -2.6170 H   0  0  0  0  0  0  0  0  0  0  0  0
    4.0014    1.3300   -1.8743 H   0  0  0  0  0  0  0  0  0  0  0  0
    5.6900    1.7805   -0.1672 H   0  0  0  0  0  0  0  0  0  0  0  0
    7.8405    1.5365    0.8178 H   0  0  0  0  0  0  0  0  0  0  0  0
    6.5386    1.7747    2.0486 H   0  0  0  0  0  0  0  0  0  0  0  0
    8.0786    1.0306    2.4946 H   0  0  0  0  0  0  0  0  0  0  0  0
    5.8532   -2.4214    0.7799 H   0  0  0  0  0  0  0  0  0  0  0  0
    4.1455   -2.8701   -0.9444 H   0  0  0  0  0  0  0  0  0  0  0  0
    0.9026   -4.1124    2.2889 H   0  0  0  0  0  0  0  0  0  0  0  0
    1.7604   -2.5630    2.1310 H   0  0  0  0  0  0  0  0  0  0  0  0
    1.7869   -3.7453    0.8016 H   0  0  0  0  0  0  0  0  0  0  0  0
  1  2  1  0
  2  3  2  0
  3  4  1  0
  4  5  1  0
  5  6  1  0
  6  7  2  0
  7  8  1  0
  8  9  2  0
  9 10  1  0
 10 11  2  0
 11 12  1  0
 12 13  2  0
 13 14  1  0
 14 15  2  0
  4 16  2  0
 16 17  1  0
 17 18  2  3
 18 19  1  0
 19 20  1  0
 20 21  2  0
 21 22  1  0
 22 23  2  0
 23 24  1  0
 24 25  1  0
 23 26  1  0
 26 27  2  0
 17 28  1  0
 28 29  2  0
 29 30  1  0
 30 31  1  0
 30  1  1  0
 29  3  1  0
 15  6  1  0
 27 20  1  0
 15 10  1  0
  1 32  1  0
  2 33  1  0
  5 34  1  0
  7 35  1  0
  8 36  1  0
  9 37  1  0
 11 38  1  0
 12 39  1  0
 13 40  1  0
 14 41  1  0
 19 42  1  0
 19 43  1  0
 21 44  1  0
 22 45  1  0
 25 46  1  0
 25 47  1  0
 25 48  1  0
 26 49  1  0
 27 50  1  0
 31 51  1  0
 31 52  1  0
 31 53  1  0
M  END
>  <ScrubInfo>  (7) 
{"isomerGroup": 0, "isomerId": 6, "confId": 0, "nr_conformers:": 1, "nr_isomers:": 9}

$$$$
_i7
     RDKit          3D

 53 57  0  0  0  0  0  0  0  0999 V2000
   -2.3466    1.7362   -2.8111 N   0  0  0  0  0  0  0  0  0  0  0  0
   -2.7380    1.4005   -1.5201 C   0  0  0  0  0  0  0  0  0  0  0  0
   -1.7266    0.9859   -0.7442 C   0  0  0  0  0  0  0  0  0  0  0  0
   -1.4760    0.4778    0.6193 C   0  0  0  0  0  0  0  0  0  0  0  0
   -2.3075    0.3183    1.6067 N   0  0  0  0  0  0  0  0  0  0  0  0
   -3.6636    0.6589    1.4635 C   0  0  0  0  0  0  0  0  0  0  0  0
   -4.0593    1.9533    1.8237 C   0  0  0  0  0  0  0  0  0  0  0  0
   -5.3885    2.3481    1.7073 C   0  0  0  0  0  0  0  0  0  0  0  0
   -6.3402    1.4444    1.2391 C   0  0  0  0  0  0  0  0  0  0  0  0
   -5.9794    0.1323    0.8941 C   0  0  0  0  0  0  0  0  0  0  0  0
   -6.9452   -0.7782    0.4339 C   0  0  0  0  0  0  0  0  0  0  0  0
   -6.5948   -2.0860    0.0978 C   0  0  0  0  0  0  0  0  0  0  0  0
   -5.2749   -2.5027    0.2211 C   0  0  0  0  0  0  0  0  0  0  0  0
   -4.3036   -1.6096    0.6763 C   0  0  0  0  0  0  0  0  0  0  0  0
   -4.6288   -0.2786    1.0151 C   0  0  0  0  0  0  0  0  0  0  0  0
   -0.1639    0.1398    0.8101 N   0  0  0  0  0  0  0  0  0  0  0  0
    0.8607    0.2410   -0.0873 C   0  0  0  0  0  0  0  0  0  0  0  0
    2.0361   -0.1549    0.2751 N   0  0  0  0  0  0  0  0  0  0  0  0
    3.1086   -0.0323   -0.7154 C   0  0  0  0  0  0  0  0  0  0  0  0
    4.4287   -0.5243   -0.1627 C   0  0  0  0  0  0  0  0  0  0  0  0
    4.9185   -0.0324    1.0550 C   0  0  0  0  0  0  0  0  0  0  0  0
    6.1506   -0.4625    1.5610 C   0  0  0  0  0  0  0  0  0  0  0  0
    6.9142   -1.3884    0.8511 C   0  0  0  0  0  0  0  0  0  0  0  0
    8.1299   -1.8893    1.2292 O   0  0  0  0  0  0  0  0  0  0  0  0
    8.6472   -1.4402    2.4750 C   0  0  0  0  0  0  0  0  0  0  0  0
    6.4341   -1.8762   -0.3662 C   0  0  0  0  0  0  0  0  0  0  0  0
    5.2036   -1.4486   -0.8725 C   0  0  0  0  0  0  0  0  0  0  0  0
    0.6637    0.7572   -1.3506 N   0  0  0  0  0  0  0  0  0  0  0  0
   -0.5409    1.1228   -1.6637 C   0  0  0  0  0  0  0  0  0  0  0  0
   -0.9622    1.6828   -2.8724 N   0  0  0  0  0  0  0  0  0  0  0  0
   -0.3260    1.3222   -4.1252 C   0  0  0  0  0  0  0  0  0  0  0  0
   -2.7845    2.5920   -3.1593 H   0  0  0  0  0  0  0  0  0  0  0  0
   -3.7832    1.4946   -1.2646 H   0  0  0  0  0  0  0  0  0  0  0  0
   -3.3186    2.6542    2.2001 H   0  0  0  0  0  0  0  0  0  0  0  0
   -5.6839    3.3555    1.9882 H   0  0  0  0  0  0  0  0  0  0  0  0
   -7.3757    1.7691    1.1574 H   0  0  0  0  0  0  0  0  0  0  0  0
   -7.9856   -0.4752    0.3374 H   0  0  0  0  0  0  0  0  0  0  0  0
   -7.3542   -2.7796   -0.2535 H   0  0  0  0  0  0  0  0  0  0  0  0
   -4.9975   -3.5228   -0.0312 H   0  0  0  0  0  0  0  0  0  0  0  0
   -3.2783   -1.9607    0.7753 H   0  0  0  0  0  0  0  0  0  0  0  0
    0.0847   -0.2388    1.7119 H   0  0  0  0  0  0  0  0  0  0  0  0
    3.2477    1.0144   -1.0156 H   0  0  0  0  0  0  0  0  0  0  0  0
    2.8569   -0.6156   -1.6104 H   0  0  0  0  0  0  0  0  0  0  0  0
    4.3303    0.6884    1.6194 H   0  0  0  0  0  0  0  0  0  0  0  0
    6.4795   -0.0539    2.5099 H   0  0  0  0  0  0  0  0  0  0  0  0
    7.9861   -1.7199    3.3019 H   0  0  0  0  0  0  0  0  0  0  0  0
    9.6090   -1.9368    2.6359 H   0  0  0  0  0  0  0  0  0  0  0  0
    8.8289   -0.3604    2.4607 H   0  0  0  0  0  0  0  0  0  0  0  0
    7.0238   -2.5976   -0.9260 H   0  0  0  0  0  0  0  0  0  0  0  0
    4.8554   -1.8458   -1.8227 H   0  0  0  0  0  0  0  0  0  0  0  0
   -0.7296    1.9256   -4.9448 H   0  0  0  0  0  0  0  0  0  0  0  0
    0.7524    1.5042   -4.0769 H   0  0  0  0  0  0  0  0  0  0  0  0
   -0.4935    0.2650   -4.3563 H   0  0  0  0  0  0  0  0  0  0  0  0
  1  2  1  0
  2  3  2  0
  3  4  1  0
  4  5  2  3
  5  6  1  0
  6  7  2  0
  7  8  1  0
  8  9  2  0
  9 10  1  0
 10 11  2  0
 11 12  1  0
 12 13  2  0
 13 14  1  0
 14 15  2  0
  4 16  1  0
 16 17  1  0
 17 18  2  3
 18 19  1  0
 19 20  1  0
 20 21  2  0
 21 22  1  0
 22 23  2  0
 23 24  1  0
 24 25  1  0
 23 26  1  0
 26 27  2  0
 17 28  1  0
 28 29  2  0
 29 30  1  0
 30 31  1  0
 30  1  1  0
 29  3  1  0
 15  6  1  0
 27 20  1  0
 15 10  1  0
  1 32  1  0
  2 33  1  0
  7 34  1  0
  8 35  1  0
  9 36  1  0
 11 37  1  0
 12 38  1  0
 13 39  1  0
 14 40  1  0
 16 41  1  0
 19 42  1  0
 19 43  1  0
 21 44  1  0
 22 45  1  0
 25 46  1  0
 25 47  1  0
 25 48  1  0
 26 49  1  0
 27 50  1  0
 31 51  1  0
 31 52  1  0
 31 53  1  0
M  END
>  <ScrubInfo>  (8) 
{"isomerGroup": 0, "isomerId": 7, "confId": 0, "nr_conformers:": 1, "nr_isomers:": 9}

$$$$
_i8
     RDKit          3D

 53 57  0  0  0  0  0  0  0  0999 V2000
    0.9343   -1.4357    0.4507 N   0  0  0  0  0  0  0  0  0  0  0  0
    0.7849   -1.0669    1.7769 C   0  0  0  0  0  0  0  0  0  0  0  0
    1.6805   -1.0428    2.7050 N   0  0  0  0  0  0  0  0  0  0  0  0
    3.0414   -1.4975    2.4113 C   0  0  0  0  0  0  0  0  0  0  0  0
    3.8278   -0.6271    1.4573 C   0  0  0  0  0  0  0  0  0  0  0  0
    3.6714    0.7634    1.4430 C   0  0  0  0  0  0  0  0  0  0  0  0
    4.4113    1.5499    0.5570 C   0  0  0  0  0  0  0  0  0  0  0  0
    5.3321    0.9677   -0.3159 C   0  0  0  0  0  0  0  0  0  0  0  0
    5.9875    1.8507   -1.1285 O   0  0  0  0  0  0  0  0  0  0  0  0
    6.9748    1.3144   -1.9997 C   0  0  0  0  0  0  0  0  0  0  0  0
    5.5099   -0.4150   -0.2929 C   0  0  0  0  0  0  0  0  0  0  0  0
    4.7666   -1.2059    0.5915 C   0  0  0  0  0  0  0  0  0  0  0  0
   -0.5011   -0.6829    2.0912 N   0  0  0  0  0  0  0  0  0  0  0  0
   -1.6481   -0.5964    1.3315 C   0  0  0  0  0  0  0  0  0  0  0  0
   -2.7729   -0.2181    1.8610 N   0  0  0  0  0  0  0  0  0  0  0  0
   -3.9566   -0.1261    1.1126 C   0  0  0  0  0  0  0  0  0  0  0  0
   -4.7903   -1.2503    1.0542 C   0  0  0  0  0  0  0  0  0  0  0  0
   -5.9837   -1.2129    0.3398 C   0  0  0  0  0  0  0  0  0  0  0  0
   -6.3634   -0.0416   -0.3126 C   0  0  0  0  0  0  0  0  0  0  0  0
   -5.5632    1.1100   -0.2498 C   0  0  0  0  0  0  0  0  0  0  0  0
   -5.9568    2.2915   -0.8998 C   0  0  0  0  0  0  0  0  0  0  0  0
   -5.1701    3.4416   -0.8352 C   0  0  0  0  0  0  0  0  0  0  0  0
   -3.9805    3.4273   -0.1171 C   0  0  0  0  0  0  0  0  0  0  0  0
   -3.5752    2.2606    0.5333 C   0  0  0  0  0  0  0  0  0  0  0  0
   -4.3480    1.0808    0.4783 C   0  0  0  0  0  0  0  0  0  0  0  0
   -1.3832   -0.9697   -0.0479 C   0  0  0  0  0  0  0  0  0  0  0  0
   -2.0984   -1.0442   -1.2582 C   0  0  0  0  0  0  0  0  0  0  0  0
   -1.3411   -1.4526   -2.2882 N   0  0  0  0  0  0  0  0  0  0  0  0
   -0.1216   -1.6341   -1.7382 N   0  0  0  0  0  0  0  0  0  0  0  0
    0.9778   -2.0485   -2.5729 C   0  0  0  0  0  0  0  0  0  0  0  0
   -0.1113   -1.3641   -0.4045 C   0  0  0  0  0  0  0  0  0  0  0  0
    1.8738   -1.6373    0.1343 H   0  0  0  0  0  0  0  0  0  0  0  0
    3.0038   -2.5308    2.0422 H   0  0  0  0  0  0  0  0  0  0  0  0
    3.5951   -1.5340    3.3572 H   0  0  0  0  0  0  0  0  0  0  0  0
    2.9672    1.2431    2.1202 H   0  0  0  0  0  0  0  0  0  0  0  0
    4.2716    2.6283    0.5525 H   0  0  0  0  0  0  0  0  0  0  0  0
    6.5287    0.6237   -2.7229 H   0  0  0  0  0  0  0  0  0  0  0  0
    7.7797    0.8315   -1.4357 H   0  0  0  0  0  0  0  0  0  0  0  0
    7.4133    2.1456   -2.5602 H   0  0  0  0  0  0  0  0  0  0  0  0
    6.2232   -0.9094   -0.9438 H   0  0  0  0  0  0  0  0  0  0  0  0
    4.9337   -2.2812    0.6026 H   0  0  0  0  0  0  0  0  0  0  0  0
   -0.6266   -0.4210    3.0583 H   0  0  0  0  0  0  0  0  0  0  0  0
   -4.4990   -2.1610    1.5709 H   0  0  0  0  0  0  0  0  0  0  0  0
   -6.6189   -2.0935    0.2944 H   0  0  0  0  0  0  0  0  0  0  0  0
   -7.2999   -0.0306   -0.8668 H   0  0  0  0  0  0  0  0  0  0  0  0
   -6.8866    2.3255   -1.4636 H   0  0  0  0  0  0  0  0  0  0  0  0
   -5.4890    4.3479   -1.3430 H   0  0  0  0  0  0  0  0  0  0  0  0
   -3.3658    4.3216   -0.0594 H   0  0  0  0  0  0  0  0  0  0  0  0
   -2.6432    2.2741    1.0947 H   0  0  0  0  0  0  0  0  0  0  0  0
   -3.1371   -0.8181   -1.4564 H   0  0  0  0  0  0  0  0  0  0  0  0
    1.6540   -2.6801   -1.9919 H   0  0  0  0  0  0  0  0  0  0  0  0
    1.4965   -1.1521   -2.9212 H   0  0  0  0  0  0  0  0  0  0  0  0
    0.5904   -2.6177   -3.4220 H   0  0  0  0  0  0  0  0  0  0  0  0
  1  2  1  0
  2  3  2  3
  3  4  1  0
  4  5  1  0
  5  6  2  0
  6  7  1  0
  7  8  2  0
  8  9  1  0
  9 10  1  0
  8 11  1  0
 11 12  2  0
  2 13  1  0
 13 14  1  0
 14 15  2  3
 15 16  1  0
 16 17  2  0
 17 18  1  0
 18 19  2  0
 19 20  1  0
 20 21  2  0
 21 22  1  0
 22 23  2  0
 23 24  1  0
 24 25  2  0
 14 26  1  0
 26 27  1  0
 27 28  2  0
 28 29  1  0
 29 30  1  0
 29 31  1  0
 31  1  1  0
 12  5  1  0
 25 16  1  0
 31 26  2  0
 25 20  1  0
  1 32  1  0
  4 33  1  0
  4 34  1  0
  6 35  1  0
  7 36  1  0
 10 37  1  0
 10 38  1  0
 10 39  1  0
 11 40  1  0
 12 41  1  0
 13 42  1  0
 17 43  1  0
 18 44  1  0
 19 45  1  0
 21 46  1  0
 22 47  1  0
 23 48  1  0
 24 49  1  0
 27 50  1  0
 30 51  1  0
 30 52  1  0
 30 53  1  0
M  END
>  <ScrubInfo>  (9) 
{"isomerGroup": 0, "isomerId": 8, "confId": 0, "nr_conformers:": 1, "nr_isomers:": 9}

$$$$
