REMARK SMILES COCCCNc1nc(Nc2ccc3c(c2)OCCO3)c2cnn(C)c2n1
REMARK SMILES IDX 5 1 4 2 3 3 2 4 1 5 6 6 7 8 8 9 27 10 9 11 26 12 21 13 24 14
REMARK SMILES IDX 22 15 23 16 25 17 10 18 11 20 12 21 16 22 13 23 15 24 14 25
REMARK SMILES IDX 17 26 20 27 18 28 19 29
REMARK H PARENT 6 7 10 19
ROOT
ATOM      1  C   UNL     1       4.036   0.323   0.046  1.00  0.00     0.118 C 
ENDROOT
BRANCH   1   2
ATOM      2  C   UNL     1       5.264   0.895  -0.664  1.00  0.00     0.050 C 
BRANCH   2   3
ATOM      3  C   UNL     1       6.226   1.560   0.316  1.00  0.00     0.161 C 
BRANCH   3   4
ATOM      4  O   UNL     1       5.602   2.604   1.062  1.00  0.00    -0.385 OA
ATOM      5  C   UNL     1       5.511   3.828   0.346  1.00  0.00     0.194 C 
ENDBRANCH   3   4
ENDBRANCH   2   3
ENDBRANCH   1   2
BRANCH   1   6
ATOM      6  N   UNL     1       3.204  -0.366  -0.930  1.00  0.00    -0.354 N 
ATOM      7  H   UNL     1       2.917   0.196  -1.724  1.00  0.00     0.163 HD
BRANCH   6   8
ATOM      8  C   UNL     1       2.024  -0.890  -0.410  1.00  0.00     0.226 A 
ATOM      9  N   UNL     1       0.972  -0.827  -1.249  1.00  0.00    -0.195 NA
ATOM     10  N   UNL     1       2.008  -1.400   0.828  1.00  0.00    -0.193 NA
ATOM     11  C   UNL     1      -0.240  -1.297  -0.859  1.00  0.00     0.147 A 
ATOM     12  C   UNL     1       0.809  -1.888   1.176  1.00  0.00     0.165 A 
ATOM     13  C   UNL     1      -0.337  -1.879   0.407  1.00  0.00     0.082 A 
ATOM     14  N   UNL     1       0.470  -2.500   2.351  1.00  0.00    -0.250 N 
ATOM     15  C   UNL     1      -1.299  -2.533   1.204  1.00  0.00     0.149 A 
ATOM     16  N   UNL     1      -0.820  -2.907   2.397  1.00  0.00    -0.179 NA
ATOM     17  C   UNL     1       1.331  -2.747   3.480  1.00  0.00     0.176 C 
BRANCH  11  18
ATOM     18  N   UNL     1      -1.282  -1.214  -1.794  1.00  0.00    -0.339 N 
ATOM     19  H   UNL     1      -0.895  -0.816  -2.647  1.00  0.00     0.168 HD
BRANCH  18  20
ATOM     20  C   UNL     1      -2.618  -0.812  -1.599  1.00  0.00     0.044 A 
ATOM     21  C   UNL     1      -3.554  -1.118  -2.599  1.00  0.00     0.030 A 
ATOM     22  C   UNL     1      -3.051  -0.098  -0.475  1.00  0.00     0.076 A 
ATOM     23  C   UNL     1      -4.896  -0.751  -2.467  1.00  0.00     0.052 A 
ATOM     24  C   UNL     1      -4.389   0.281  -0.348  1.00  0.00     0.163 A 
ATOM     25  C   UNL     1      -5.316  -0.067  -1.332  1.00  0.00     0.161 A 
ATOM     26  O   UNL     1      -4.721   0.993   0.778  1.00  0.00    -0.486 OA
ATOM     27  O   UNL     1      -6.650   0.242  -1.254  1.00  0.00    -0.486 OA
ATOM     28  C   UNL     1      -6.008   1.608   0.648  1.00  0.00     0.271 C 
ATOM     29  C   UNL     1      -7.017   0.626   0.076  1.00  0.00     0.271 C 
ENDBRANCH  18  20
ENDBRANCH  11  18
ENDBRANCH   6   8
ENDBRANCH   1   6
TORSDOF 7
