_i0
     RDKit          3D

 49 52  0  0  0  0  0  0  0  0999 V2000
    5.5110    3.8284    0.3459 C   0  0  0  0  0  0  0  0  0  0  0  0
    5.6023    2.6036    1.0622 O   0  0  0  0  0  0  0  0  0  0  0  0
    6.2258    1.5601    0.3163 C   0  0  0  0  0  0  0  0  0  0  0  0
    5.2642    0.8949   -0.6636 C   0  0  0  0  0  0  0  0  0  0  0  0
    4.0358    0.3234    0.0463 C   0  0  0  0  0  0  0  0  0  0  0  0
    3.2040   -0.3656   -0.9296 N   0  0  0  0  0  0  0  0  0  0  0  0
    2.0238   -0.8901   -0.4105 C   0  0  0  0  0  0  0  0  0  0  0  0
    0.9720   -0.8274   -1.2491 N   0  0  0  0  0  0  0  0  0  0  0  0
   -0.2405   -1.2966   -0.8588 C   0  0  0  0  0  0  0  0  0  0  0  0
   -1.2816   -1.2143   -1.7945 N   0  0  0  0  0  0  0  0  0  0  0  0
   -2.6182   -0.8119   -1.5994 C   0  0  0  0  0  0  0  0  0  0  0  0
   -3.5544   -1.1183   -2.5990 C   0  0  0  0  0  0  0  0  0  0  0  0
   -4.8965   -0.7512   -2.4674 C   0  0  0  0  0  0  0  0  0  0  0  0
   -5.3165   -0.0667   -1.3323 C   0  0  0  0  0  0  0  0  0  0  0  0
   -4.3889    0.2813   -0.3477 C   0  0  0  0  0  0  0  0  0  0  0  0
   -3.0512   -0.0984   -0.4754 C   0  0  0  0  0  0  0  0  0  0  0  0
   -4.7205    0.9931    0.7778 O   0  0  0  0  0  0  0  0  0  0  0  0
   -6.0075    1.6078    0.6481 C   0  0  0  0  0  0  0  0  0  0  0  0
   -7.0168    0.6260    0.0765 C   0  0  0  0  0  0  0  0  0  0  0  0
   -6.6498    0.2419   -1.2538 O   0  0  0  0  0  0  0  0  0  0  0  0
   -0.3371   -1.8788    0.4068 C   0  0  0  0  0  0  0  0  0  0  0  0
   -1.2991   -2.5332    1.2039 C   0  0  0  0  0  0  0  0  0  0  0  0
   -0.8203   -2.9069    2.3970 N   0  0  0  0  0  0  0  0  0  0  0  0
    0.4699   -2.5004    2.3513 N   0  0  0  0  0  0  0  0  0  0  0  0
    1.3315   -2.7474    3.4796 C   0  0  0  0  0  0  0  0  0  0  0  0
    0.8089   -1.8879    1.1761 C   0  0  0  0  0  0  0  0  0  0  0  0
    2.0082   -1.3999    0.8282 N   0  0  0  0  0  0  0  0  0  0  0  0
    5.0636    4.5767    1.0059 H   0  0  0  0  0  0  0  0  0  0  0  0
    6.5055    4.1767    0.0510 H   0  0  0  0  0  0  0  0  0  0  0  0
    4.8717    3.7207   -0.5342 H   0  0  0  0  0  0  0  0  0  0  0  0
    6.5764    0.8161    1.0402 H   0  0  0  0  0  0  0  0  0  0  0  0
    7.1121    1.9408   -0.2047 H   0  0  0  0  0  0  0  0  0  0  0  0
    5.7934    0.0946   -1.1955 H   0  0  0  0  0  0  0  0  0  0  0  0
    4.9376    1.6149   -1.4229 H   0  0  0  0  0  0  0  0  0  0  0  0
    4.3686   -0.3723    0.8265 H   0  0  0  0  0  0  0  0  0  0  0  0
    3.4683    1.1321    0.5231 H   0  0  0  0  0  0  0  0  0  0  0  0
    2.9172    0.1964   -1.7242 H   0  0  0  0  0  0  0  0  0  0  0  0
   -0.8950   -0.8156   -2.6470 H   0  0  0  0  0  0  0  0  0  0  0  0
   -3.2429   -1.6684   -3.4844 H   0  0  0  0  0  0  0  0  0  0  0  0
   -5.6119   -1.0124   -3.2420 H   0  0  0  0  0  0  0  0  0  0  0  0
   -2.3541    0.2004    0.3019 H   0  0  0  0  0  0  0  0  0  0  0  0
   -5.9066    2.4960    0.0120 H   0  0  0  0  0  0  0  0  0  0  0  0
   -6.3204    1.9353    1.6444 H   0  0  0  0  0  0  0  0  0  0  0  0
   -8.0079    1.0876    0.0267 H   0  0  0  0  0  0  0  0  0  0  0  0
   -7.0914   -0.2785    0.6929 H   0  0  0  0  0  0  0  0  0  0  0  0
   -2.3317   -2.7520    0.9627 H   0  0  0  0  0  0  0  0  0  0  0  0
    1.4092   -3.8283    3.6220 H   0  0  0  0  0  0  0  0  0  0  0  0
    0.8881   -2.2767    4.3609 H   0  0  0  0  0  0  0  0  0  0  0  0
    2.3218   -2.3250    3.2949 H   0  0  0  0  0  0  0  0  0  0  0  0
  1  2  1  0
  2  3  1  0
  3  4  1  0
  4  5  1  0
  5  6  1  0
  6  7  1  0
  7  8  2  0
  8  9  1  0
  9 10  1  0
 10 11  1  0
 11 12  2  0
 12 13  1  0
 13 14  2  0
 14 15  1  0
 15 16  2  0
 15 17  1  0
 17 18  1  0
 18 19  1  0
 19 20  1  0
  9 21  2  0
 21 22  1  0
 22 23  2  0
 23 24  1  0
 24 25  1  0
 24 26  1  0
 26 27  2  0
 27  7  1  0
 16 11  1  0
 26 21  1  0
 20 14  1  0
  1 28  1  0
  1 29  1  0
  1 30  1  0
  3 31  1  0
  3 32  1  0
  4 33  1  0
  4 34  1  0
  5 35  1  0
  5 36  1  0
  6 37  1  0
 10 38  1  0
 12 39  1  0
 13 40  1  0
 16 41  1  0
 18 42  1  0
 18 43  1  0
 19 44  1  0
 19 45  1  0
 22 46  1  0
 25 47  1  0
 25 48  1  0
 25 49  1  0
M  END
>  <ScrubInfo>  (1) 
{"isomerGroup": 0, "isomerId": 0, "confId": 0, "nr_conformers:": 1, "nr_isomers:": 9}

$$$$
_i1
     RDKit          3D

 49 52  0  0  0  0  0  0  0  0999 V2000
    0.2851   -0.8356    0.2070 N   0  0  0  0  0  0  0  0  0  0  0  0
   -0.7689   -1.7272    0.1366 C   0  0  0  0  0  0  0  0  0  0  0  0
   -2.0845   -1.3483    0.3309 N   0  0  0  0  0  0  0  0  0  0  0  0
   -2.7016   -0.1127    0.0490 C   0  0  0  0  0  0  0  0  0  0  0  0
   -2.1413    0.8586   -0.7921 C   0  0  0  0  0  0  0  0  0  0  0  0
   -2.7727    2.0912   -0.9926 C   0  0  0  0  0  0  0  0  0  0  0  0
   -3.9692    2.3728   -0.3428 C   0  0  0  0  0  0  0  0  0  0  0  0
   -4.5521    1.4107    0.4829 C   0  0  0  0  0  0  0  0  0  0  0  0
   -3.9137    0.1868    0.6904 C   0  0  0  0  0  0  0  0  0  0  0  0
   -5.7446    1.6014    1.1338 O   0  0  0  0  0  0  0  0  0  0  0  0
   -6.4598    2.7200    0.5949 C   0  0  0  0  0  0  0  0  0  0  0  0
   -5.5325    3.9086    0.4013 C   0  0  0  0  0  0  0  0  0  0  0  0
   -4.5203    3.6074   -0.5663 O   0  0  0  0  0  0  0  0  0  0  0  0
   -0.4092   -3.0002   -0.0715 C   0  0  0  0  0  0  0  0  0  0  0  0
   -1.0580   -4.3100   -0.1967 C   0  0  0  0  0  0  0  0  0  0  0  0
   -0.2118   -5.2865   -0.4045 N   0  0  0  0  0  0  0  0  0  0  0  0
    1.0507   -4.6758   -0.4808 N   0  0  0  0  0  0  0  0  0  0  0  0
    2.2318   -5.5009   -0.3989 C   0  0  0  0  0  0  0  0  0  0  0  0
    1.0292   -3.3121   -0.2351 C   0  0  0  0  0  0  0  0  0  0  0  0
    1.9978   -2.4657   -0.1428 N   0  0  0  0  0  0  0  0  0  0  0  0
    1.6108   -1.1711    0.1239 C   0  0  0  0  0  0  0  0  0  0  0  0
    2.4966   -0.2479    0.3101 N   0  0  0  0  0  0  0  0  0  0  0  0
    3.9015   -0.6489    0.2150 C   0  0  0  0  0  0  0  0  0  0  0  0
    4.7821    0.5751    0.4505 C   0  0  0  0  0  0  0  0  0  0  0  0
    4.6391    1.6111   -0.6621 C   0  0  0  0  0  0  0  0  0  0  0  0
    5.5890    2.6704   -0.5133 O   0  0  0  0  0  0  0  0  0  0  0  0
    5.1987    3.6335    0.4562 C   0  0  0  0  0  0  0  0  0  0  0  0
    0.0792    0.0972    0.5339 H   0  0  0  0  0  0  0  0  0  0  0  0
   -2.7525   -2.1019    0.4582 H   0  0  0  0  0  0  0  0  0  0  0  0
   -1.2202    0.6645   -1.3358 H   0  0  0  0  0  0  0  0  0  0  0  0
   -2.3249    2.8304   -1.6515 H   0  0  0  0  0  0  0  0  0  0  0  0
   -4.3723   -0.5325    1.3639 H   0  0  0  0  0  0  0  0  0  0  0  0
   -7.2582    2.9734    1.2993 H   0  0  0  0  0  0  0  0  0  0  0  0
   -6.9229    2.4138   -0.3514 H   0  0  0  0  0  0  0  0  0  0  0  0
   -6.0957    4.7724    0.0344 H   0  0  0  0  0  0  0  0  0  0  0  0
   -5.0430    4.1934    1.3409 H   0  0  0  0  0  0  0  0  0  0  0  0
   -2.1458   -4.4174   -0.1013 H   0  0  0  0  0  0  0  0  0  0  0  0
    3.0866   -5.0067   -0.8715 H   0  0  0  0  0  0  0  0  0  0  0  0
    2.0739   -6.4557   -0.9108 H   0  0  0  0  0  0  0  0  0  0  0  0
    2.4816   -5.7055    0.6468 H   0  0  0  0  0  0  0  0  0  0  0  0
    4.1356   -1.3948    0.9843 H   0  0  0  0  0  0  0  0  0  0  0  0
    4.1256   -1.0771   -0.7696 H   0  0  0  0  0  0  0  0  0  0  0  0
    5.8316    0.2632    0.5157 H   0  0  0  0  0  0  0  0  0  0  0  0
    4.5385    1.0257    1.4195 H   0  0  0  0  0  0  0  0  0  0  0  0
    3.6234    2.0196   -0.7174 H   0  0  0  0  0  0  0  0  0  0  0  0
    4.8511    1.1383   -1.6274 H   0  0  0  0  0  0  0  0  0  0  0  0
    5.1688    3.1943    1.4566 H   0  0  0  0  0  0  0  0  0  0  0  0
    5.9419    4.4356    0.4576 H   0  0  0  0  0  0  0  0  0  0  0  0
    4.2255    4.0648    0.2026 H   0  0  0  0  0  0  0  0  0  0  0  0
  1  2  1  0
  2  3  1  0
  3  4  1  0
  4  5  2  0
  5  6  1  0
  6  7  2  0
  7  8  1  0
  8  9  2  0
  8 10  1  0
 10 11  1  0
 11 12  1  0
 12 13  1  0
  2 14  2  0
 14 15  1  0
 15 16  2  0
 16 17  1  0
 17 18  1  0
 17 19  1  0
 19 20  2  0
 20 21  1  0
 21 22  2  3
 22 23  1  0
 23 24  1  0
 24 25  1  0
 25 26  1  0
 26 27  1  0
 21  1  1  0
  9  4  1  0
 19 14  1  0
 13  7  1  0
  1 28  1  0
  3 29  1  0
  5 30  1  0
  6 31  1  0
  9 32  1  0
 11 33  1  0
 11 34  1  0
 12 35  1  0
 12 36  1  0
 15 37  1  0
 18 38  1  0
 18 39  1  0
 18 40  1  0
 23 41  1  0
 23 42  1  0
 24 43  1  0
 24 44  1  0
 25 45  1  0
 25 46  1  0
 27 47  1  0
 27 48  1  0
 27 49  1  0
M  END
>  <ScrubInfo>  (2) 
{"isomerGroup": 0, "isomerId": 1, "confId": 0, "nr_conformers:": 1, "nr_isomers:": 9}

$$$$
_i2
     RDKit          3D

 49 52  0  0  0  0  0  0  0  0999 V2000
    0.8449   -0.0266   -0.8467 N   0  0  0  0  0  0  0  0  0  0  0  0
    1.8367    0.4642   -0.0317 C   0  0  0  0  0  0  0  0  0  0  0  0
    3.0727    0.4321   -0.6227 N   0  0  0  0  0  0  0  0  0  0  0  0
    4.2255    1.0203    0.0460 C   0  0  0  0  0  0  0  0  0  0  0  0
    5.5112    0.6810   -0.7002 C   0  0  0  0  0  0  0  0  0  0  0  0
    5.8532   -0.8051   -0.6209 C   0  0  0  0  0  0  0  0  0  0  0  0
    7.0299   -1.0914   -1.3789 O   0  0  0  0  0  0  0  0  0  0  0  0
    8.2309   -0.8744   -0.6500 C   0  0  0  0  0  0  0  0  0  0  0  0
    1.6274    0.9030    1.1822 N   0  0  0  0  0  0  0  0  0  0  0  0
    0.3104    0.8312    1.5259 C   0  0  0  0  0  0  0  0  0  0  0  0
   -0.7536    0.3524    0.7763 C   0  0  0  0  0  0  0  0  0  0  0  0
   -1.8715    0.5235    1.6118 C   0  0  0  0  0  0  0  0  0  0  0  0
   -1.5563    1.0622    2.7968 N   0  0  0  0  0  0  0  0  0  0  0  0
   -0.2178    1.2373    2.7189 N   0  0  0  0  0  0  0  0  0  0  0  0
    0.4852    1.8089    3.8394 C   0  0  0  0  0  0  0  0  0  0  0  0
   -0.4928   -0.1620   -0.5535 C   0  0  0  0  0  0  0  0  0  0  0  0
   -1.3210   -0.6948   -1.3998 N   0  0  0  0  0  0  0  0  0  0  0  0
   -2.6784   -0.8477   -1.1129 C   0  0  0  0  0  0  0  0  0  0  0  0
   -3.1426   -2.0250   -0.5161 C   0  0  0  0  0  0  0  0  0  0  0  0
   -4.5031   -2.1951   -0.2502 C   0  0  0  0  0  0  0  0  0  0  0  0
   -5.4048   -1.1910   -0.5943 C   0  0  0  0  0  0  0  0  0  0  0  0
   -4.9528   -0.0343   -1.2380 C   0  0  0  0  0  0  0  0  0  0  0  0
   -3.5929    0.1391   -1.4906 C   0  0  0  0  0  0  0  0  0  0  0  0
   -5.7888    0.9760   -1.6412 O   0  0  0  0  0  0  0  0  0  0  0  0
   -7.1572    0.5534   -1.6399 C   0  0  0  0  0  0  0  0  0  0  0  0
   -7.4848   -0.2020   -0.3626 C   0  0  0  0  0  0  0  0  0  0  0  0
   -6.7215   -1.4113   -0.2816 O   0  0  0  0  0  0  0  0  0  0  0  0
    1.1187   -0.4704   -1.7077 H   0  0  0  0  0  0  0  0  0  0  0  0
    3.0579    0.6238   -1.6183 H   0  0  0  0  0  0  0  0  0  0  0  0
    4.2957    0.6622    1.0799 H   0  0  0  0  0  0  0  0  0  0  0  0
    4.1039    2.1092    0.0758 H   0  0  0  0  0  0  0  0  0  0  0  0
    5.4402    0.9836   -1.7525 H   0  0  0  0  0  0  0  0  0  0  0  0
    6.3318    1.2694   -0.2743 H   0  0  0  0  0  0  0  0  0  0  0  0
    5.9688   -1.1412    0.4163 H   0  0  0  0  0  0  0  0  0  0  0  0
    5.0464   -1.3959   -1.0671 H   0  0  0  0  0  0  0  0  0  0  0  0
    9.0741   -1.1340   -1.2959 H   0  0  0  0  0  0  0  0  0  0  0  0
    8.2627   -1.5166    0.2354 H   0  0  0  0  0  0  0  0  0  0  0  0
    8.3300    0.1745   -0.3587 H   0  0  0  0  0  0  0  0  0  0  0  0
   -2.9098    0.2860    1.4273 H   0  0  0  0  0  0  0  0  0  0  0  0
    1.5579    1.8378    3.6370 H   0  0  0  0  0  0  0  0  0  0  0  0
    0.1102    2.8232    3.9980 H   0  0  0  0  0  0  0  0  0  0  0  0
    0.2931    1.1892    4.7191 H   0  0  0  0  0  0  0  0  0  0  0  0
   -2.4387   -2.8098   -0.2525 H   0  0  0  0  0  0  0  0  0  0  0  0
   -4.8556   -3.1037    0.2295 H   0  0  0  0  0  0  0  0  0  0  0  0
   -3.2446    1.0387   -1.9890 H   0  0  0  0  0  0  0  0  0  0  0  0
   -7.7808    1.4493   -1.7203 H   0  0  0  0  0  0  0  0  0  0  0  0
   -7.3316   -0.0657   -2.5287 H   0  0  0  0  0  0  0  0  0  0  0  0
   -8.5440   -0.4770   -0.3464 H   0  0  0  0  0  0  0  0  0  0  0  0
   -7.2748    0.4035    0.5279 H   0  0  0  0  0  0  0  0  0  0  0  0
  1  2  1  0
  2  3  1  0
  3  4  1  0
  4  5  1  0
  5  6  1  0
  6  7  1  0
  7  8  1  0
  2  9  2  0
  9 10  1  0
 10 11  2  0
 11 12  1  0
 12 13  2  0
 13 14  1  0
 14 15  1  0
 11 16  1  0
 16 17  2  3
 17 18  1  0
 18 19  2  0
 19 20  1  0
 20 21  2  0
 21 22  1  0
 22 23  2  0
 22 24  1  0
 24 25  1  0
 25 26  1  0
 26 27  1  0
 16  1  1  0
 23 18  1  0
 14 10  1  0
 27 21  1  0
  1 28  1  0
  3 29  1  0
  4 30  1  0
  4 31  1  0
  5 32  1  0
  5 33  1  0
  6 34  1  0
  6 35  1  0
  8 36  1  0
  8 37  1  0
  8 38  1  0
 12 39  1  0
 15 40  1  0
 15 41  1  0
 15 42  1  0
 19 43  1  0
 20 44  1  0
 23 45  1  0
 25 46  1  0
 25 47  1  0
 26 48  1  0
 26 49  1  0
M  END
>  <ScrubInfo>  (3) 
{"isomerGroup": 0, "isomerId": 2, "confId": 0, "nr_conformers:": 1, "nr_isomers:": 9}

$$$$
_i3
     RDKit          3D

 49 52  0  0  0  0  0  0  0  0999 V2000
   -1.9810   -1.7244   -0.3194 N   0  0  0  0  0  0  0  0  0  0  0  0
   -1.4761   -0.4381   -0.3978 C   0  0  0  0  0  0  0  0  0  0  0  0
   -2.1501    0.6394   -0.5834 N   0  0  0  0  0  0  0  0  0  0  0  0
   -3.5961    0.6178   -0.7605 C   0  0  0  0  0  0  0  0  0  0  0  0
   -4.2740    0.8144    0.5935 C   0  0  0  0  0  0  0  0  0  0  0  0
   -5.7936    0.6999    0.5066 C   0  0  0  0  0  0  0  0  0  0  0  0
   -6.3667    1.5330   -0.4971 O   0  0  0  0  0  0  0  0  0  0  0  0
   -6.3880    2.9094   -0.1397 C   0  0  0  0  0  0  0  0  0  0  0  0
   -0.1187   -0.1989   -0.2643 N   0  0  0  0  0  0  0  0  0  0  0  0
    0.7213   -1.1712   -0.0677 C   0  0  0  0  0  0  0  0  0  0  0  0
    2.0857   -1.0960    0.0824 N   0  0  0  0  0  0  0  0  0  0  0  0
    2.9232    0.0380    0.0631 C   0  0  0  0  0  0  0  0  0  0  0  0
    2.4706    1.3487   -0.1333 C   0  0  0  0  0  0  0  0  0  0  0  0
    3.3576    2.4333   -0.1337 C   0  0  0  0  0  0  0  0  0  0  0  0
    4.7161    2.2226    0.0660 C   0  0  0  0  0  0  0  0  0  0  0  0
    5.1936    0.9236    0.2355 C   0  0  0  0  0  0  0  0  0  0  0  0
    4.3047   -0.1536    0.2485 C   0  0  0  0  0  0  0  0  0  0  0  0
    6.5228    0.6266    0.4037 O   0  0  0  0  0  0  0  0  0  0  0  0
    7.3532    1.7349    0.0357 C   0  0  0  0  0  0  0  0  0  0  0  0
    6.8126    3.0293    0.6207 C   0  0  0  0  0  0  0  0  0  0  0  0
    5.5231    3.3301    0.0758 O   0  0  0  0  0  0  0  0  0  0  0  0
    0.2219   -2.5326    0.0156 C   0  0  0  0  0  0  0  0  0  0  0  0
    0.7417   -3.8238    0.2091 C   0  0  0  0  0  0  0  0  0  0  0  0
   -0.2108   -4.7682    0.1989 N   0  0  0  0  0  0  0  0  0  0  0  0
   -1.3553   -4.0723   -0.0073 N   0  0  0  0  0  0  0  0  0  0  0  0
   -2.6046   -4.7859   -0.0829 C   0  0  0  0  0  0  0  0  0  0  0  0
   -1.1243   -2.7381   -0.1169 C   0  0  0  0  0  0  0  0  0  0  0  0
   -2.9775   -1.8407   -0.4106 H   0  0  0  0  0  0  0  0  0  0  0  0
   -3.8618    1.4431   -1.4311 H   0  0  0  0  0  0  0  0  0  0  0  0
   -3.9496   -0.2916   -1.2582 H   0  0  0  0  0  0  0  0  0  0  0  0
   -3.9930    1.7971    0.9903 H   0  0  0  0  0  0  0  0  0  0  0  0
   -3.9057    0.0742    1.3141 H   0  0  0  0  0  0  0  0  0  0  0  0
   -6.2551    0.9086    1.4789 H   0  0  0  0  0  0  0  0  0  0  0  0
   -6.0571   -0.3314    0.2463 H   0  0  0  0  0  0  0  0  0  0  0  0
   -6.9200    3.0553    0.8053 H   0  0  0  0  0  0  0  0  0  0  0  0
   -5.3735    3.3108   -0.0695 H   0  0  0  0  0  0  0  0  0  0  0  0
   -6.9181    3.4565   -0.9241 H   0  0  0  0  0  0  0  0  0  0  0  0
    2.5899   -1.9568    0.2343 H   0  0  0  0  0  0  0  0  0  0  0  0
    1.4174    1.5667   -0.2881 H   0  0  0  0  0  0  0  0  0  0  0  0
    2.9764    3.4402   -0.2803 H   0  0  0  0  0  0  0  0  0  0  0  0
    4.7104   -1.1508    0.3962 H   0  0  0  0  0  0  0  0  0  0  0  0
    7.4079    1.7807   -1.0591 H   0  0  0  0  0  0  0  0  0  0  0  0
    8.3589    1.5370    0.4196 H   0  0  0  0  0  0  0  0  0  0  0  0
    7.4787    3.8626    0.3760 H   0  0  0  0  0  0  0  0  0  0  0  0
    6.7250    2.9708    1.7127 H   0  0  0  0  0  0  0  0  0  0  0  0
    1.7667   -4.1356    0.3588 H   0  0  0  0  0  0  0  0  0  0  0  0
   -3.4243   -4.0864   -0.2588 H   0  0  0  0  0  0  0  0  0  0  0  0
   -2.5440   -5.4999   -0.9082 H   0  0  0  0  0  0  0  0  0  0  0  0
   -2.7604   -5.3084    0.8643 H   0  0  0  0  0  0  0  0  0  0  0  0
  1  2  1  0
  2  3  2  3
  3  4  1  0
  4  5  1  0
  5  6  1  0
  6  7  1  0
  7  8  1  0
  2  9  1  0
  9 10  2  0
 10 11  1  0
 11 12  1  0
 12 13  2  0
 13 14  1  0
 14 15  2  0
 15 16  1  0
 16 17  2  0
 16 18  1  0
 18 19  1  0
 19 20  1  0
 20 21  1  0
 10 22  1  0
 22 23  1  0
 23 24  2  0
 24 25  1  0
 25 26  1  0
 25 27  1  0
 27  1  1  0
 17 12  1  0
 27 22  2  0
 21 15  1  0
  1 28  1  0
  4 29  1  0
  4 30  1  0
  5 31  1  0
  5 32  1  0
  6 33  1  0
  6 34  1  0
  8 35  1  0
  8 36  1  0
  8 37  1  0
 11 38  1  0
 13 39  1  0
 14 40  1  0
 17 41  1  0
 19 42  1  0
 19 43  1  0
 20 44  1  0
 20 45  1  0
 23 46  1  0
 26 47  1  0
 26 48  1  0
 26 49  1  0
M  END
>  <ScrubInfo>  (4) 
{"isomerGroup": 0, "isomerId": 3, "confId": 0, "nr_conformers:": 1, "nr_isomers:": 9}

$$$$
_i4
     RDKit          3D

 49 52  0  0  0  0  0  0  0  0999 V2000
   -1.4516   -2.8544    0.7597 N   0  0  0  0  0  0  0  0  0  0  0  0
   -1.8193   -1.5752    0.3561 C   0  0  0  0  0  0  0  0  0  0  0  0
   -0.7757   -0.7537    0.1640 C   0  0  0  0  0  0  0  0  0  0  0  0
   -0.5111    0.6280   -0.2174 C   0  0  0  0  0  0  0  0  0  0  0  0
   -1.3134    1.5642   -0.6026 N   0  0  0  0  0  0  0  0  0  0  0  0
   -2.6852    1.3298   -0.7124 C   0  0  0  0  0  0  0  0  0  0  0  0
   -3.2262    0.8771   -1.9208 C   0  0  0  0  0  0  0  0  0  0  0  0
   -4.6004    0.6627   -2.0455 C   0  0  0  0  0  0  0  0  0  0  0  0
   -5.4398    0.9200   -0.9643 C   0  0  0  0  0  0  0  0  0  0  0  0
   -4.9050    1.3702    0.2474 C   0  0  0  0  0  0  0  0  0  0  0  0
   -3.5346    1.5964    0.3649 C   0  0  0  0  0  0  0  0  0  0  0  0
   -5.6687    1.6180    1.3596 O   0  0  0  0  0  0  0  0  0  0  0  0
   -6.9805    1.0580    1.2328 C   0  0  0  0  0  0  0  0  0  0  0  0
   -7.5596    1.3462   -0.1423 C   0  0  0  0  0  0  0  0  0  0  0  0
   -6.7802    0.7070   -1.1602 O   0  0  0  0  0  0  0  0  0  0  0  0
    0.8121    0.9771   -0.1536 N   0  0  0  0  0  0  0  0  0  0  0  0
    1.7571    0.1385    0.1519 C   0  0  0  0  0  0  0  0  0  0  0  0
    3.0226    0.6486    0.1808 N   0  0  0  0  0  0  0  0  0  0  0  0
    4.2005   -0.1726    0.0066 C   0  0  0  0  0  0  0  0  0  0  0  0
    5.4558    0.6804    0.1531 C   0  0  0  0  0  0  0  0  0  0  0  0
    6.7141   -0.1616   -0.0323 C   0  0  0  0  0  0  0  0  0  0  0  0
    7.8954    0.5978    0.2204 O   0  0  0  0  0  0  0  0  0  0  0  0
    8.2781    1.4274   -0.8682 C   0  0  0  0  0  0  0  0  0  0  0  0
    1.5816   -1.1903    0.4293 N   0  0  0  0  0  0  0  0  0  0  0  0
    0.3744   -1.6362    0.4378 C   0  0  0  0  0  0  0  0  0  0  0  0
   -0.0680   -2.9352    0.6956 N   0  0  0  0  0  0  0  0  0  0  0  0
    0.6304   -3.7808    1.6455 C   0  0  0  0  0  0  0  0  0  0  0  0
   -1.9707   -3.5949    0.2825 H   0  0  0  0  0  0  0  0  0  0  0  0
   -2.8708   -1.3624    0.2323 H   0  0  0  0  0  0  0  0  0  0  0  0
   -2.5707    0.7026   -2.7702 H   0  0  0  0  0  0  0  0  0  0  0  0
   -5.0150    0.3175   -2.9882 H   0  0  0  0  0  0  0  0  0  0  0  0
   -3.1225    1.9730    1.2966 H   0  0  0  0  0  0  0  0  0  0  0  0
   -6.9175   -0.0206    1.4231 H   0  0  0  0  0  0  0  0  0  0  0  0
   -7.6086    1.5054    2.0095 H   0  0  0  0  0  0  0  0  0  0  0  0
   -7.5897    2.4232   -0.3490 H   0  0  0  0  0  0  0  0  0  0  0  0
   -8.5800    0.9566   -0.2126 H   0  0  0  0  0  0  0  0  0  0  0  0
    3.0509    1.5742   -0.2315 H   0  0  0  0  0  0  0  0  0  0  0  0
    4.1795   -0.6373   -0.9861 H   0  0  0  0  0  0  0  0  0  0  0  0
    4.2145   -0.9737    0.7547 H   0  0  0  0  0  0  0  0  0  0  0  0
    5.4781    1.1634    1.1383 H   0  0  0  0  0  0  0  0  0  0  0  0
    5.4369    1.4989   -0.5761 H   0  0  0  0  0  0  0  0  0  0  0  0
    6.7108   -0.9834    0.6922 H   0  0  0  0  0  0  0  0  0  0  0  0
    6.7560   -0.6110   -1.0316 H   0  0  0  0  0  0  0  0  0  0  0  0
    9.2217    1.9156   -0.6095 H   0  0  0  0  0  0  0  0  0  0  0  0
    7.5307    2.2036   -1.0518 H   0  0  0  0  0  0  0  0  0  0  0  0
    8.4336    0.8305   -1.7719 H   0  0  0  0  0  0  0  0  0  0  0  0
    0.5696   -3.3642    2.6564 H   0  0  0  0  0  0  0  0  0  0  0  0
    0.1922   -4.7841    1.6556 H   0  0  0  0  0  0  0  0  0  0  0  0
    1.6852   -3.8802    1.3699 H   0  0  0  0  0  0  0  0  0  0  0  0
  1  2  1  0
  2  3  2  0
  3  4  1  0
  4  5  2  3
  5  6  1  0
  6  7  2  0
  7  8  1  0
  8  9  2  0
  9 10  1  0
 10 11  2  0
 10 12  1  0
 12 13  1  0
 13 14  1  0
 14 15  1  0
  4 16  1  0
 16 17  2  0
 17 18  1  0
 18 19  1  0
 19 20  1  0
 20 21  1  0
 21 22  1  0
 22 23  1  0
 17 24  1  0
 24 25  2  0
 25 26  1  0
 26 27  1  0
 26  1  1  0
 25  3  1  0
 11  6  1  0
 15  9  1  0
  1 28  1  0
  2 29  1  0
  7 30  1  0
  8 31  1  0
 11 32  1  0
 13 33  1  0
 13 34  1  0
 14 35  1  0
 14 36  1  0
 18 37  1  0
 19 38  1  0
 19 39  1  0
 20 40  1  0
 20 41  1  0
 21 42  1  0
 21 43  1  0
 23 44  1  0
 23 45  1  0
 23 46  1  0
 27 47  1  0
 27 48  1  0
 27 49  1  0
M  END
>  <ScrubInfo>  (5) 
{"isomerGroup": 0, "isomerId": 4, "confId": 0, "nr_conformers:": 1, "nr_isomers:": 9}

$$$$
_i5
     RDKit          3D

 49 52  0  0  0  0  0  0  0  0999 V2000
   -1.6899   -2.5296    0.7624 N   0  0  0  0  0  0  0  0  0  0  0  0
   -1.1505   -1.2765    0.5849 C   0  0  0  0  0  0  0  0  0  0  0  0
   -1.9427   -0.2372    0.9836 N   0  0  0  0  0  0  0  0  0  0  0  0
   -3.2940   -0.0650    0.4552 C   0  0  0  0  0  0  0  0  0  0  0  0
   -4.0452    1.0116    1.2394 C   0  0  0  0  0  0  0  0  0  0  0  0
   -3.5323    2.4242    0.9822 C   0  0  0  0  0  0  0  0  0  0  0  0
   -3.6672    2.7233   -0.4051 O   0  0  0  0  0  0  0  0  0  0  0  0
   -3.1780    4.0229   -0.7129 C   0  0  0  0  0  0  0  0  0  0  0  0
    0.0344   -1.0173    0.1032 N   0  0  0  0  0  0  0  0  0  0  0  0
    0.8473   -2.0721   -0.2924 C   0  0  0  0  0  0  0  0  0  0  0  0
    2.0244   -1.9313   -0.8135 N   0  0  0  0  0  0  0  0  0  0  0  0
    2.5145   -0.6308   -0.9931 C   0  0  0  0  0  0  0  0  0  0  0  0
    2.2863    0.0475   -2.1956 C   0  0  0  0  0  0  0  0  0  0  0  0
    2.7910    1.3350   -2.3915 C   0  0  0  0  0  0  0  0  0  0  0  0
    3.5360    1.9444   -1.3851 C   0  0  0  0  0  0  0  0  0  0  0  0
    3.8048    1.2550   -0.1976 C   0  0  0  0  0  0  0  0  0  0  0  0
    3.2875   -0.0241    0.0009 C   0  0  0  0  0  0  0  0  0  0  0  0
    4.5659    1.7784    0.8178 O   0  0  0  0  0  0  0  0  0  0  0  0
    5.3219    2.9083    0.3693 C   0  0  0  0  0  0  0  0  0  0  0  0
    4.4449    3.8518   -0.4368 C   0  0  0  0  0  0  0  0  0  0  0  0
    3.9837    3.2169   -1.6346 O   0  0  0  0  0  0  0  0  0  0  0  0
    0.3336   -3.4043   -0.0995 C   0  0  0  0  0  0  0  0  0  0  0  0
    0.8060   -4.7063   -0.3099 C   0  0  0  0  0  0  0  0  0  0  0  0
   -0.0859   -5.6380    0.0675 N   0  0  0  0  0  0  0  0  0  0  0  0
   -1.1382   -4.9127    0.5236 N   0  0  0  0  0  0  0  0  0  0  0  0
   -2.3032   -5.6020    1.0155 C   0  0  0  0  0  0  0  0  0  0  0  0
   -0.9163   -3.5763    0.4275 C   0  0  0  0  0  0  0  0  0  0  0  0
   -2.5245   -2.5978    1.3279 H   0  0  0  0  0  0  0  0  0  0  0  0
   -1.4003    0.6121    0.8276 H   0  0  0  0  0  0  0  0  0  0  0  0
   -3.8547   -1.0016    0.5508 H   0  0  0  0  0  0  0  0  0  0  0  0
   -3.2479    0.1770   -0.6124 H   0  0  0  0  0  0  0  0  0  0  0  0
   -5.0997    0.9669    0.9398 H   0  0  0  0  0  0  0  0  0  0  0  0
   -3.9985    0.7974    2.3136 H   0  0  0  0  0  0  0  0  0  0  0  0
   -2.4839    2.5204    1.2854 H   0  0  0  0  0  0  0  0  0  0  0  0
   -4.1276    3.1374    1.5641 H   0  0  0  0  0  0  0  0  0  0  0  0
   -3.7380    4.7836   -0.1605 H   0  0  0  0  0  0  0  0  0  0  0  0
   -2.1114    4.0951   -0.4794 H   0  0  0  0  0  0  0  0  0  0  0  0
   -3.3138    4.1969   -1.7836 H   0  0  0  0  0  0  0  0  0  0  0  0
    1.7050   -0.4316   -2.9784 H   0  0  0  0  0  0  0  0  0  0  0  0
    2.5970    1.8598   -3.3219 H   0  0  0  0  0  0  0  0  0  0  0  0
    3.4906   -0.5560    0.9249 H   0  0  0  0  0  0  0  0  0  0  0  0
    6.1737    2.5477   -0.2207 H   0  0  0  0  0  0  0  0  0  0  0  0
    5.7123    3.4188    1.2552 H   0  0  0  0  0  0  0  0  0  0  0  0
    5.0142    4.7393   -0.7305 H   0  0  0  0  0  0  0  0  0  0  0  0
    3.5724    4.1811    0.1410 H   0  0  0  0  0  0  0  0  0  0  0  0
    1.7601   -5.0181   -0.7156 H   0  0  0  0  0  0  0  0  0  0  0  0
   -2.0153   -6.1742    1.9009 H   0  0  0  0  0  0  0  0  0  0  0  0
   -3.0805   -4.8805    1.2756 H   0  0  0  0  0  0  0  0  0  0  0  0
   -2.6677   -6.2695    0.2305 H   0  0  0  0  0  0  0  0  0  0  0  0
  1  2  1  0
  2  3  1  0
  3  4  1  0
  4  5  1  0
  5  6  1  0
  6  7  1  0
  7  8  1  0
  2  9  2  0
  9 10  1  0
 10 11  2  3
 11 12  1  0
 12 13  2  0
 13 14  1  0
 14 15  2  0
 15 16  1  0
 16 17  2  0
 16 18  1  0
 18 19  1  0
 19 20  1  0
 20 21  1  0
 10 22  1  0
 22 23  1  0
 23 24  2  0
 24 25  1  0
 25 26  1  0
 25 27  1  0
 27  1  1  0
 17 12  1  0
 27 22  2  0
 21 15  1  0
  1 28  1  0
  3 29  1  0
  4 30  1  0
  4 31  1  0
  5 32  1  0
  5 33  1  0
  6 34  1  0
  6 35  1  0
  8 36  1  0
  8 37  1  0
  8 38  1  0
 13 39  1  0
 14 40  1  0
 17 41  1  0
 19 42  1  0
 19 43  1  0
 20 44  1  0
 20 45  1  0
 23 46  1  0
 26 47  1  0
 26 48  1  0
 26 49  1  0
M  END
>  <ScrubInfo>  (6) 
{"isomerGroup": 0, "isomerId": 5, "confId": 0, "nr_conformers:": 1, "nr_isomers:": 9}

$$$$
_i6
     RDKit          3D

 49 52  0  0  0  0  0  0  0  0999 V2000
    0.3309   -4.4350   -2.2853 N   0  0  0  0  0  0  0  0  0  0  0  0
   -0.6146   -3.4488   -2.0246 C   0  0  0  0  0  0  0  0  0  0  0  0
   -0.1679   -2.5045   -1.1843 C   0  0  0  0  0  0  0  0  0  0  0  0
   -0.6472   -1.2559   -0.5815 C   0  0  0  0  0  0  0  0  0  0  0  0
   -1.9345   -0.8295   -0.8558 N   0  0  0  0  0  0  0  0  0  0  0  0
   -2.6318    0.3104   -0.4059 C   0  0  0  0  0  0  0  0  0  0  0  0
   -2.1131    1.2559    0.4869 C   0  0  0  0  0  0  0  0  0  0  0  0
   -2.8620    2.3717    0.8843 C   0  0  0  0  0  0  0  0  0  0  0  0
   -4.1461    2.5614    0.3902 C   0  0  0  0  0  0  0  0  0  0  0  0
   -4.6950    1.6190   -0.4781 C   0  0  0  0  0  0  0  0  0  0  0  0
   -3.9403    0.5153   -0.8820 C   0  0  0  0  0  0  0  0  0  0  0  0
   -5.9673    1.7130   -0.9842 O   0  0  0  0  0  0  0  0  0  0  0  0
   -6.7475    2.6677   -0.2538 C   0  0  0  0  0  0  0  0  0  0  0  0
   -5.9556    3.9437   -0.0200 C   0  0  0  0  0  0  0  0  0  0  0  0
   -4.8129    3.6851    0.8030 O   0  0  0  0  0  0  0  0  0  0  0  0
    0.1910   -0.6175    0.1815 N   0  0  0  0  0  0  0  0  0  0  0  0
    1.4585   -1.1084    0.3934 C   0  0  0  0  0  0  0  0  0  0  0  0
    2.1927   -0.3374    1.1130 N   0  0  0  0  0  0  0  0  0  0  0  0
    3.5632   -0.7342    1.4361 C   0  0  0  0  0  0  0  0  0  0  0  0
    4.5334   -0.1869    0.3894 C   0  0  0  0  0  0  0  0  0  0  0  0
    4.6818    1.3289    0.4706 C   0  0  0  0  0  0  0  0  0  0  0  0
    5.4138    1.6674    1.6507 O   0  0  0  0  0  0  0  0  0  0  0  0
    5.4889    3.0749    1.8299 C   0  0  0  0  0  0  0  0  0  0  0  0
    1.9726   -2.2897   -0.0876 N   0  0  0  0  0  0  0  0  0  0  0  0
    1.1888   -2.9798   -0.8385 C   0  0  0  0  0  0  0  0  0  0  0  0
    1.4210   -4.2108   -1.4521 N   0  0  0  0  0  0  0  0  0  0  0  0
    2.7489   -4.5818   -1.9033 C   0  0  0  0  0  0  0  0  0  0  0  0
   -0.0505   -5.3842   -2.2764 H   0  0  0  0  0  0  0  0  0  0  0  0
   -1.5820   -3.5220   -2.4989 H   0  0  0  0  0  0  0  0  0  0  0  0
   -2.4785   -1.4032   -1.4857 H   0  0  0  0  0  0  0  0  0  0  0  0
   -1.1130    1.1576    0.8996 H   0  0  0  0  0  0  0  0  0  0  0  0
   -2.4290    3.0927    1.5725 H   0  0  0  0  0  0  0  0  0  0  0  0
   -4.3955   -0.1910   -1.5708 H   0  0  0  0  0  0  0  0  0  0  0  0
   -7.6449    2.8817   -0.8426 H   0  0  0  0  0  0  0  0  0  0  0  0
   -7.0606    2.2101    0.6929 H   0  0  0  0  0  0  0  0  0  0  0  0
   -5.6127    4.3826   -0.9653 H   0  0  0  0  0  0  0  0  0  0  0  0
   -6.5749    4.6845    0.4953 H   0  0  0  0  0  0  0  0  0  0  0  0
    3.6757   -1.8215    1.5216 H   0  0  0  0  0  0  0  0  0  0  0  0
    3.8105   -0.3388    2.4280 H   0  0  0  0  0  0  0  0  0  0  0  0
    4.1954   -0.4642   -0.6155 H   0  0  0  0  0  0  0  0  0  0  0  0
    5.5134   -0.6512    0.5524 H   0  0  0  0  0  0  0  0  0  0  0  0
    5.2453    1.6831   -0.4003 H   0  0  0  0  0  0  0  0  0  0  0  0
    3.7027    1.8213    0.4757 H   0  0  0  0  0  0  0  0  0  0  0  0
    5.9903    3.5440    0.9778 H   0  0  0  0  0  0  0  0  0  0  0  0
    6.0718    3.2765    2.7326 H   0  0  0  0  0  0  0  0  0  0  0  0
    4.4883    3.4985    1.9591 H   0  0  0  0  0  0  0  0  0  0  0  0
    3.0819   -3.9245   -2.7133 H   0  0  0  0  0  0  0  0  0  0  0  0
    2.7522   -5.6138   -2.2687 H   0  0  0  0  0  0  0  0  0  0  0  0
    3.4678   -4.5162   -1.0804 H   0  0  0  0  0  0  0  0  0  0  0  0
  1  2  1  0
  2  3  2  0
  3  4  1  0
  4  5  1  0
  5  6  1  0
  6  7  2  0
  7  8  1  0
  8  9  2  0
  9 10  1  0
 10 11  2  0
 10 12  1  0
 12 13  1  0
 13 14  1  0
 14 15  1  0
  4 16  2  0
 16 17  1  0
 17 18  2  3
 18 19  1  0
 19 20  1  0
 20 21  1  0
 21 22  1  0
 22 23  1  0
 17 24  1  0
 24 25  2  0
 25 26  1  0
 26 27  1  0
 26  1  1  0
 25  3  1  0
 11  6  1  0
 15  9  1  0
  1 28  1  0
  2 29  1  0
  5 30  1  0
  7 31  1  0
  8 32  1  0
 11 33  1  0
 13 34  1  0
 13 35  1  0
 14 36  1  0
 14 37  1  0
 19 38  1  0
 19 39  1  0
 20 40  1  0
 20 41  1  0
 21 42  1  0
 21 43  1  0
 23 44  1  0
 23 45  1  0
 23 46  1  0
 27 47  1  0
 27 48  1  0
 27 49  1  0
M  END
>  <ScrubInfo>  (7) 
{"isomerGroup": 0, "isomerId": 6, "confId": 0, "nr_conformers:": 1, "nr_isomers:": 9}

$$$$
_i7
     RDKit          3D

 49 52  0  0  0  0  0  0  0  0999 V2000
   -2.3135   -1.8333   -0.8890 N   0  0  0  0  0  0  0  0  0  0  0  0
   -2.1779   -0.6667   -0.1449 C   0  0  0  0  0  0  0  0  0  0  0  0
   -0.9139   -0.2278   -0.0610 C   0  0  0  0  0  0  0  0  0  0  0  0
   -0.1371    0.8928    0.5054 C   0  0  0  0  0  0  0  0  0  0  0  0
   -0.5435    1.8945    1.2284 N   0  0  0  0  0  0  0  0  0  0  0  0
   -1.8877    2.0212    1.5881 C   0  0  0  0  0  0  0  0  0  0  0  0
   -2.7528    2.7915    0.8039 C   0  0  0  0  0  0  0  0  0  0  0  0
   -4.0943    2.9375    1.1640 C   0  0  0  0  0  0  0  0  0  0  0  0
   -4.5703    2.3219    2.3191 C   0  0  0  0  0  0  0  0  0  0  0  0
   -3.6981    1.5914    3.1329 C   0  0  0  0  0  0  0  0  0  0  0  0
   -2.3626    1.4360    2.7649 C   0  0  0  0  0  0  0  0  0  0  0  0
   -4.0900    0.9922    4.3031 O   0  0  0  0  0  0  0  0  0  0  0  0
   -5.3433    1.5157    4.7582 C   0  0  0  0  0  0  0  0  0  0  0  0
   -6.3422    1.5757    3.6145 C   0  0  0  0  0  0  0  0  0  0  0  0
   -5.9017    2.4870    2.6010 O   0  0  0  0  0  0  0  0  0  0  0  0
    1.1909    0.8124    0.1858 N   0  0  0  0  0  0  0  0  0  0  0  0
    1.8126   -0.1567   -0.5485 C   0  0  0  0  0  0  0  0  0  0  0  0
    3.0833   -0.0465   -0.7632 N   0  0  0  0  0  0  0  0  0  0  0  0
    3.7218   -1.1057   -1.5461 C   0  0  0  0  0  0  0  0  0  0  0  0
    5.2088   -0.7822   -1.6617 C   0  0  0  0  0  0  0  0  0  0  0  0
    5.9361   -1.8275   -2.5014 C   0  0  0  0  0  0  0  0  0  0  0  0
    7.3493   -1.6224   -2.5077 O   0  0  0  0  0  0  0  0  0  0  0  0
    7.7596   -0.5477   -3.3418 C   0  0  0  0  0  0  0  0  0  0  0  0
    1.1187   -1.2362   -1.0533 N   0  0  0  0  0  0  0  0  0  0  0  0
   -0.1555   -1.2881   -0.8164 C   0  0  0  0  0  0  0  0  0  0  0  0
   -1.0441   -2.2919   -1.2090 N   0  0  0  0  0  0  0  0  0  0  0  0
   -0.8482   -3.0244   -2.4453 C   0  0  0  0  0  0  0  0  0  0  0  0
   -2.9447   -2.5149   -0.4610 H   0  0  0  0  0  0  0  0  0  0  0  0
   -3.0681   -0.2309    0.2837 H   0  0  0  0  0  0  0  0  0  0  0  0
   -2.3769    3.2783   -0.0921 H   0  0  0  0  0  0  0  0  0  0  0  0
   -4.7639    3.5271    0.5444 H   0  0  0  0  0  0  0  0  0  0  0  0
   -1.6865    0.8711    3.3997 H   0  0  0  0  0  0  0  0  0  0  0  0
   -5.7116    0.8541    5.5484 H   0  0  0  0  0  0  0  0  0  0  0  0
   -5.1708    2.5073    5.1949 H   0  0  0  0  0  0  0  0  0  0  0  0
   -6.4858    0.5896    3.1558 H   0  0  0  0  0  0  0  0  0  0  0  0
   -7.3128    1.9278    3.9777 H   0  0  0  0  0  0  0  0  0  0  0  0
    1.7893    1.5498    0.5264 H   0  0  0  0  0  0  0  0  0  0  0  0
    3.2841   -1.1579   -2.5505 H   0  0  0  0  0  0  0  0  0  0  0  0
    3.6010   -2.0779   -1.0528 H   0  0  0  0  0  0  0  0  0  0  0  0
    5.6655   -0.7250   -0.6656 H   0  0  0  0  0  0  0  0  0  0  0  0
    5.3348    0.2138   -2.1020 H   0  0  0  0  0  0  0  0  0  0  0  0
    5.7688   -2.8204   -2.0696 H   0  0  0  0  0  0  0  0  0  0  0  0
    5.5546   -1.8541   -3.5290 H   0  0  0  0  0  0  0  0  0  0  0  0
    8.8529   -0.5320   -3.3636 H   0  0  0  0  0  0  0  0  0  0  0  0
    7.4140    0.4102   -2.9449 H   0  0  0  0  0  0  0  0  0  0  0  0
    7.3954   -0.6888   -4.3639 H   0  0  0  0  0  0  0  0  0  0  0  0
    0.1454   -3.4834   -2.4689 H   0  0  0  0  0  0  0  0  0  0  0  0
   -1.5881   -3.8266   -2.5342 H   0  0  0  0  0  0  0  0  0  0  0  0
   -0.9488   -2.3609   -3.3105 H   0  0  0  0  0  0  0  0  0  0  0  0
  1  2  1  0
  2  3  2  0
  3  4  1  0
  4  5  2  3
  5  6  1  0
  6  7  2  0
  7  8  1  0
  8  9  2  0
  9 10  1  0
 10 11  2  0
 10 12  1  0
 12 13  1  0
 13 14  1  0
 14 15  1  0
  4 16  1  0
 16 17  1  0
 17 18  2  3
 18 19  1  0
 19 20  1  0
 20 21  1  0
 21 22  1  0
 22 23  1  0
 17 24  1  0
 24 25  2  0
 25 26  1  0
 26 27  1  0
 26  1  1  0
 25  3  1  0
 11  6  1  0
 15  9  1  0
  1 28  1  0
  2 29  1  0
  7 30  1  0
  8 31  1  0
 11 32  1  0
 13 33  1  0
 13 34  1  0
 14 35  1  0
 14 36  1  0
 16 37  1  0
 19 38  1  0
 19 39  1  0
 20 40  1  0
 20 41  1  0
 21 42  1  0
 21 43  1  0
 23 44  1  0
 23 45  1  0
 23 46  1  0
 27 47  1  0
 27 48  1  0
 27 49  1  0
M  END
>  <ScrubInfo>  (8) 
{"isomerGroup": 0, "isomerId": 7, "confId": 0, "nr_conformers:": 1, "nr_isomers:": 9}

$$$$
_i8
     RDKit          3D

 49 52  0  0  0  0  0  0  0  0999 V2000
    1.6903    0.8298    0.2845 N   0  0  0  0  0  0  0  0  0  0  0  0
    0.9226    1.5672    1.1702 C   0  0  0  0  0  0  0  0  0  0  0  0
    1.3201    2.3219    2.1356 N   0  0  0  0  0  0  0  0  0  0  0  0
    2.7453    2.5062    2.4016 C   0  0  0  0  0  0  0  0  0  0  0  0
    3.2157    1.4642    3.4143 C   0  0  0  0  0  0  0  0  0  0  0  0
    4.7195    1.5290    3.6567 C   0  0  0  0  0  0  0  0  0  0  0  0
    5.0759    2.8228    4.1339 O   0  0  0  0  0  0  0  0  0  0  0  0
    6.4643    2.9156    4.4235 C   0  0  0  0  0  0  0  0  0  0  0  0
   -0.4317    1.4356    0.9548 N   0  0  0  0  0  0  0  0  0  0  0  0
   -1.1519    0.7118    0.0296 C   0  0  0  0  0  0  0  0  0  0  0  0
   -2.4508    0.7421    0.0168 N   0  0  0  0  0  0  0  0  0  0  0  0
   -3.2080    0.0192   -0.9055 C   0  0  0  0  0  0  0  0  0  0  0  0
   -3.5961    0.6112   -2.1123 C   0  0  0  0  0  0  0  0  0  0  0  0
   -4.3869   -0.0918   -3.0238 C   0  0  0  0  0  0  0  0  0  0  0  0
   -4.8080   -1.3841   -2.7199 C   0  0  0  0  0  0  0  0  0  0  0  0
   -4.4214   -1.9820   -1.5158 C   0  0  0  0  0  0  0  0  0  0  0  0
   -3.6441   -1.2733   -0.6012 C   0  0  0  0  0  0  0  0  0  0  0  0
   -4.7766   -3.2596   -1.1641 O   0  0  0  0  0  0  0  0  0  0  0  0
   -5.2621   -3.9953   -2.2929 C   0  0  0  0  0  0  0  0  0  0  0  0
   -6.2458   -3.1596   -3.0949 C   0  0  0  0  0  0  0  0  0  0  0  0
   -5.5972   -2.0098   -3.6504 O   0  0  0  0  0  0  0  0  0  0  0  0
   -0.2625   -0.0266   -0.8520 C   0  0  0  0  0  0  0  0  0  0  0  0
   -0.3833   -0.9100   -1.9410 C   0  0  0  0  0  0  0  0  0  0  0  0
    0.8031   -1.3258   -2.4097 N   0  0  0  0  0  0  0  0  0  0  0  0
    1.6995   -0.6973   -1.6200 N   0  0  0  0  0  0  0  0  0  0  0  0
    3.1068   -0.9153   -1.8411 C   0  0  0  0  0  0  0  0  0  0  0  0
    1.1012    0.0783   -0.6746 C   0  0  0  0  0  0  0  0  0  0  0  0
    2.6925    0.8714    0.3989 H   0  0  0  0  0  0  0  0  0  0  0  0
    3.3480    2.4771    1.4872 H   0  0  0  0  0  0  0  0  0  0  0  0
    2.8798    3.5128    2.8142 H   0  0  0  0  0  0  0  0  0  0  0  0
    2.6858    1.6320    4.3603 H   0  0  0  0  0  0  0  0  0  0  0  0
    2.9523    0.4563    3.0729 H   0  0  0  0  0  0  0  0  0  0  0  0
    4.9991    0.7739    4.4004 H   0  0  0  0  0  0  0  0  0  0  0  0
    5.2599    1.3207    2.7259 H   0  0  0  0  0  0  0  0  0  0  0  0
    7.0566    2.7295    3.5224 H   0  0  0  0  0  0  0  0  0  0  0  0
    6.6754    3.9282    4.7776 H   0  0  0  0  0  0  0  0  0  0  0  0
    6.7400    2.2058    5.2093 H   0  0  0  0  0  0  0  0  0  0  0  0
   -0.9997    1.9688    1.5977 H   0  0  0  0  0  0  0  0  0  0  0  0
   -3.2839    1.6273   -2.3386 H   0  0  0  0  0  0  0  0  0  0  0  0
   -4.6860    0.3735   -3.9586 H   0  0  0  0  0  0  0  0  0  0  0  0
   -3.3670   -1.7298    0.3442 H   0  0  0  0  0  0  0  0  0  0  0  0
   -4.4042   -4.3027   -2.9039 H   0  0  0  0  0  0  0  0  0  0  0  0
   -5.7524   -4.8977   -1.9144 H   0  0  0  0  0  0  0  0  0  0  0  0
   -6.6507   -3.7455   -3.9260 H   0  0  0  0  0  0  0  0  0  0  0  0
   -7.0849   -2.8210   -2.4744 H   0  0  0  0  0  0  0  0  0  0  0  0
   -1.2743   -1.2828   -2.4270 H   0  0  0  0  0  0  0  0  0  0  0  0
    3.2781   -1.0960   -2.9056 H   0  0  0  0  0  0  0  0  0  0  0  0
    3.6653   -0.0292   -1.5307 H   0  0  0  0  0  0  0  0  0  0  0  0
    3.4123   -1.7845   -1.2538 H   0  0  0  0  0  0  0  0  0  0  0  0
  1  2  1  0
  2  3  2  3
  3  4  1  0
  4  5  1  0
  5  6  1  0
  6  7  1  0
  7  8  1  0
  2  9  1  0
  9 10  1  0
 10 11  2  3
 11 12  1  0
 12 13  2  0
 13 14  1  0
 14 15  2  0
 15 16  1  0
 16 17  2  0
 16 18  1  0
 18 19  1  0
 19 20  1  0
 20 21  1  0
 10 22  1  0
 22 23  1  0
 23 24  2  0
 24 25  1  0
 25 26  1  0
 25 27  1  0
 27  1  1  0
 17 12  1  0
 27 22  2  0
 21 15  1  0
  1 28  1  0
  4 29  1  0
  4 30  1  0
  5 31  1  0
  5 32  1  0
  6 33  1  0
  6 34  1  0
  8 35  1  0
  8 36  1  0
  8 37  1  0
  9 38  1  0
 13 39  1  0
 14 40  1  0
 17 41  1  0
 19 42  1  0
 19 43  1  0
 20 44  1  0
 20 45  1  0
 23 46  1  0
 26 47  1  0
 26 48  1  0
 26 49  1  0
M  END
>  <ScrubInfo>  (9) 
{"isomerGroup": 0, "isomerId": 8, "confId": 0, "nr_conformers:": 1, "nr_isomers:": 9}

$$$$
