_i0
     RDKit          3D

 45 47  0  0  0  0  0  0  0  0999 V2000
   -3.6273    0.5953    1.7639 C   0  0  0  0  0  0  0  0  0  0  0  0
   -4.1988    1.2132    0.4881 C   0  0  0  0  0  0  0  0  0  0  0  0
   -5.5768    0.6287    0.1805 C   0  0  0  0  0  0  0  0  0  0  0  0
   -3.2331    1.1340   -0.7136 C   0  0  0  0  0  0  0  0  0  0  0  0
   -2.9974   -0.2450   -1.3426 C   0  0  0  0  0  0  0  0  0  0  0  0
   -2.3089   -1.1598   -0.4524 N   0  0  0  0  0  0  0  0  0  0  0  0
   -0.9226   -1.1618   -0.4966 C   0  0  0  0  0  0  0  0  0  0  0  0
   -0.2596   -0.0275   -0.7864 N   0  0  0  0  0  0  0  0  0  0  0  0
    1.0958   -0.0047   -0.8001 C   0  0  0  0  0  0  0  0  0  0  0  0
    1.6798    1.2509   -1.0900 N   0  0  0  0  0  0  0  0  0  0  0  0
    2.8314    1.7534   -0.4362 C   0  0  0  0  0  0  0  0  0  0  0  0
    4.0700    1.6484   -1.0834 C   0  0  0  0  0  0  0  0  0  0  0  0
    5.2417    2.0904   -0.4603 C   0  0  0  0  0  0  0  0  0  0  0  0
    6.7243    1.9225   -1.3301 Cl  0  0  0  0  0  0  0  0  0  0  0  0
    5.1835    2.6399    0.8252 C   0  0  0  0  0  0  0  0  0  0  0  0
    6.5898    3.2046    1.6543 Cl  0  0  0  0  0  0  0  0  0  0  0  0
    3.9559    2.7479    1.4828 C   0  0  0  0  0  0  0  0  0  0  0  0
    2.7887    2.3057    0.8569 C   0  0  0  0  0  0  0  0  0  0  0  0
    1.2926    2.4798    1.7030 Cl  0  0  0  0  0  0  0  0  0  0  0  0
    1.7700   -1.1974   -0.5306 C   0  0  0  0  0  0  0  0  0  0  0  0
    3.0901   -1.6846   -0.4429 C   0  0  0  0  0  0  0  0  0  0  0  0
    3.1498   -2.9846   -0.1317 N   0  0  0  0  0  0  0  0  0  0  0  0
    1.8485   -3.3347   -0.0210 N   0  0  0  0  0  0  0  0  0  0  0  0
    1.5062   -4.6930    0.3181 C   0  0  0  0  0  0  0  0  0  0  0  0
    0.9840   -2.3013   -0.2578 C   0  0  0  0  0  0  0  0  0  0  0  0
   -0.3563   -2.3435   -0.2287 N   0  0  0  0  0  0  0  0  0  0  0  0
   -4.2473    0.8652    2.6261 H   0  0  0  0  0  0  0  0  0  0  0  0
   -2.6135    0.9606    1.9580 H   0  0  0  0  0  0  0  0  0  0  0  0
   -3.6002   -0.4970    1.7163 H   0  0  0  0  0  0  0  0  0  0  0  0
   -4.3411    2.2830    0.6943 H   0  0  0  0  0  0  0  0  0  0  0  0
   -5.5403   -0.4590    0.0628 H   0  0  0  0  0  0  0  0  0  0  0  0
   -5.9882    1.0609   -0.7376 H   0  0  0  0  0  0  0  0  0  0  0  0
   -6.2763    0.8483    0.9945 H   0  0  0  0  0  0  0  0  0  0  0  0
   -3.6395    1.7809   -1.5030 H   0  0  0  0  0  0  0  0  0  0  0  0
   -2.2777    1.5873   -0.4240 H   0  0  0  0  0  0  0  0  0  0  0  0
   -2.4528   -0.1323   -2.2895 H   0  0  0  0  0  0  0  0  0  0  0  0
   -3.9607   -0.6894   -1.6165 H   0  0  0  0  0  0  0  0  0  0  0  0
   -2.5946   -2.1304   -0.5201 H   0  0  0  0  0  0  0  0  0  0  0  0
    0.8887    1.8845   -0.9405 H   0  0  0  0  0  0  0  0  0  0  0  0
    4.1142    1.2220   -2.0840 H   0  0  0  0  0  0  0  0  0  0  0  0
    3.9083    3.1763    2.4813 H   0  0  0  0  0  0  0  0  0  0  0  0
    4.0197   -1.1542   -0.5931 H   0  0  0  0  0  0  0  0  0  0  0  0
    1.9551   -4.9292    1.2862 H   0  0  0  0  0  0  0  0  0  0  0  0
    1.9037   -5.3514   -0.4584 H   0  0  0  0  0  0  0  0  0  0  0  0
    0.4211   -4.8029    0.3770 H   0  0  0  0  0  0  0  0  0  0  0  0
  1  2  1  0
  2  3  1  0
  2  4  1  0
  4  5  1  0
  5  6  1  0
  6  7  1  0
  7  8  2  0
  8  9  1  0
  9 10  1  0
 10 11  1  0
 11 12  2  0
 12 13  1  0
 13 14  1  0
 13 15  2  0
 15 16  1  0
 15 17  1  0
 17 18  2  0
 18 19  1  0
  9 20  2  0
 20 21  1  0
 21 22  2  0
 22 23  1  0
 23 24  1  0
 23 25  1  0
 25 26  2  0
 26  7  1  0
 18 11  1  0
 25 20  1  0
  1 27  1  0
  1 28  1  0
  1 29  1  0
  2 30  1  0
  3 31  1  0
  3 32  1  0
  3 33  1  0
  4 34  1  0
  4 35  1  0
  5 36  1  0
  5 37  1  0
  6 38  1  0
 10 39  1  0
 12 40  1  0
 17 41  1  0
 21 42  1  0
 24 43  1  0
 24 44  1  0
 24 45  1  0
M  END
>  <ScrubInfo>  (1) 
{"isomerGroup": 0, "isomerId": 0, "confId": 0, "nr_conformers:": 1, "nr_isomers:": 9}

$$$$
_i1
     RDKit          3D

 45 47  0  0  0  0  0  0  0  0999 V2000
    0.2461    0.1153    1.0829 N   0  0  0  0  0  0  0  0  0  0  0  0
    1.5709   -0.2454    0.9604 C   0  0  0  0  0  0  0  0  0  0  0  0
    2.5722    0.5306    1.5083 N   0  0  0  0  0  0  0  0  0  0  0  0
    3.6353    1.1775    0.8241 C   0  0  0  0  0  0  0  0  0  0  0  0
    3.8622    1.0204   -0.5513 C   0  0  0  0  0  0  0  0  0  0  0  0
    4.9625    1.6238   -1.1775 C   0  0  0  0  0  0  0  0  0  0  0  0
    5.1475    1.3795   -2.8782 Cl  0  0  0  0  0  0  0  0  0  0  0  0
    5.8630    2.3890   -0.4307 C   0  0  0  0  0  0  0  0  0  0  0  0
    7.2379    3.1573   -1.1388 Cl  0  0  0  0  0  0  0  0  0  0  0  0
    5.6626    2.5519    0.9393 C   0  0  0  0  0  0  0  0  0  0  0  0
    4.5647    1.9484    1.5567 C   0  0  0  0  0  0  0  0  0  0  0  0
    4.3598    2.1872    3.2593 Cl  0  0  0  0  0  0  0  0  0  0  0  0
    1.7845   -1.4212    0.3572 C   0  0  0  0  0  0  0  0  0  0  0  0
    2.9210   -2.2980    0.0562 C   0  0  0  0  0  0  0  0  0  0  0  0
    2.5683   -3.3996   -0.5571 N   0  0  0  0  0  0  0  0  0  0  0  0
    1.1776   -3.3010   -0.7358 N   0  0  0  0  0  0  0  0  0  0  0  0
    0.4354   -4.4878   -1.0871 C   0  0  0  0  0  0  0  0  0  0  0  0
    0.6190   -2.1717   -0.1591 C   0  0  0  0  0  0  0  0  0  0  0  0
   -0.6139   -1.8077   -0.0535 N   0  0  0  0  0  0  0  0  0  0  0  0
   -0.8110   -0.6038    0.5858 C   0  0  0  0  0  0  0  0  0  0  0  0
   -2.0002   -0.1194    0.7287 N   0  0  0  0  0  0  0  0  0  0  0  0
   -3.1077   -0.9038    0.1807 C   0  0  0  0  0  0  0  0  0  0  0  0
   -4.4209   -0.1450    0.3951 C   0  0  0  0  0  0  0  0  0  0  0  0
   -4.7151    0.9429   -0.6583 C   0  0  0  0  0  0  0  0  0  0  0  0
   -3.6809    2.0683   -0.6706 C   0  0  0  0  0  0  0  0  0  0  0  0
   -6.1088    1.5294   -0.4145 C   0  0  0  0  0  0  0  0  0  0  0  0
    0.0124    1.0091    1.4867 H   0  0  0  0  0  0  0  0  0  0  0  0
    2.2584    1.0935    2.2989 H   0  0  0  0  0  0  0  0  0  0  0  0
    3.1740    0.4462   -1.1661 H   0  0  0  0  0  0  0  0  0  0  0  0
    6.3601    3.1450    1.5261 H   0  0  0  0  0  0  0  0  0  0  0  0
    3.9422   -2.0290    0.3546 H   0  0  0  0  0  0  0  0  0  0  0  0
   -0.5073   -4.2272   -1.5788 H   0  0  0  0  0  0  0  0  0  0  0  0
    0.2109   -5.0757   -0.1917 H   0  0  0  0  0  0  0  0  0  0  0  0
    1.0099   -5.1137   -1.7778 H   0  0  0  0  0  0  0  0  0  0  0  0
   -2.9692   -1.1111   -0.8872 H   0  0  0  0  0  0  0  0  0  0  0  0
   -3.1754   -1.8588    0.7165 H   0  0  0  0  0  0  0  0  0  0  0  0
   -5.2355   -0.8801    0.3540 H   0  0  0  0  0  0  0  0  0  0  0  0
   -4.4430    0.2910    1.4022 H   0  0  0  0  0  0  0  0  0  0  0  0
   -4.7203    0.4748   -1.6509 H   0  0  0  0  0  0  0  0  0  0  0  0
   -2.7070    1.7090   -1.0155 H   0  0  0  0  0  0  0  0  0  0  0  0
   -3.9851    2.8685   -1.3543 H   0  0  0  0  0  0  0  0  0  0  0  0
   -3.5565    2.5058    0.3256 H   0  0  0  0  0  0  0  0  0  0  0  0
   -6.1676    2.0209    0.5627 H   0  0  0  0  0  0  0  0  0  0  0  0
   -6.8730    0.7456   -0.4471 H   0  0  0  0  0  0  0  0  0  0  0  0
   -6.3601    2.2694   -1.1819 H   0  0  0  0  0  0  0  0  0  0  0  0
  1  2  1  0
  2  3  1  0
  3  4  1  0
  4  5  2  0
  5  6  1  0
  6  7  1  0
  6  8  2  0
  8  9  1  0
  8 10  1  0
 10 11  2  0
 11 12  1  0
  2 13  2  0
 13 14  1  0
 14 15  2  0
 15 16  1  0
 16 17  1  0
 16 18  1  0
 18 19  2  0
 19 20  1  0
 20 21  2  3
 21 22  1  0
 22 23  1  0
 23 24  1  0
 24 25  1  0
 24 26  1  0
 20  1  1  0
 11  4  1  0
 18 13  1  0
  1 27  1  0
  3 28  1  0
  5 29  1  0
 10 30  1  0
 14 31  1  0
 17 32  1  0
 17 33  1  0
 17 34  1  0
 22 35  1  0
 22 36  1  0
 23 37  1  0
 23 38  1  0
 24 39  1  0
 25 40  1  0
 25 41  1  0
 25 42  1  0
 26 43  1  0
 26 44  1  0
 26 45  1  0
M  END
>  <ScrubInfo>  (2) 
{"isomerGroup": 0, "isomerId": 1, "confId": 0, "nr_conformers:": 1, "nr_isomers:": 9}

$$$$
_i2
     RDKit          3D

 45 47  0  0  0  0  0  0  0  0999 V2000
    0.1589    0.3801   -0.1842 N   0  0  0  0  0  0  0  0  0  0  0  0
   -0.5858   -0.4242   -1.0087 C   0  0  0  0  0  0  0  0  0  0  0  0
   -1.9165   -0.1293   -1.1045 N   0  0  0  0  0  0  0  0  0  0  0  0
   -2.7550    0.0820    0.0690 C   0  0  0  0  0  0  0  0  0  0  0  0
   -4.1915    0.3696   -0.3741 C   0  0  0  0  0  0  0  0  0  0  0  0
   -5.1841    0.4840    0.7973 C   0  0  0  0  0  0  0  0  0  0  0  0
   -4.8655    1.6608    1.7207 C   0  0  0  0  0  0  0  0  0  0  0  0
   -6.6098    0.6230    0.2577 C   0  0  0  0  0  0  0  0  0  0  0  0
   -0.0943   -1.4220   -1.6988 N   0  0  0  0  0  0  0  0  0  0  0  0
    1.2427   -1.5716   -1.4785 C   0  0  0  0  0  0  0  0  0  0  0  0
    2.0768   -0.8094   -0.6734 C   0  0  0  0  0  0  0  0  0  0  0  0
    3.3350   -1.4224   -0.8021 C   0  0  0  0  0  0  0  0  0  0  0  0
    3.3174   -2.4803   -1.6214 N   0  0  0  0  0  0  0  0  0  0  0  0
    2.0299   -2.5427   -2.0308 N   0  0  0  0  0  0  0  0  0  0  0  0
    1.6285   -3.5797   -2.9477 C   0  0  0  0  0  0  0  0  0  0  0  0
    1.5136    0.3181    0.0440 C   0  0  0  0  0  0  0  0  0  0  0  0
    2.1174    1.1866    0.7980 N   0  0  0  0  0  0  0  0  0  0  0  0
    3.5028    1.1701    1.0034 C   0  0  0  0  0  0  0  0  0  0  0  0
    3.9995    0.5551    2.1583 C   0  0  0  0  0  0  0  0  0  0  0  0
    5.3702    0.5566    2.4342 C   0  0  0  0  0  0  0  0  0  0  0  0
    5.8993   -0.2373    3.8740 Cl  0  0  0  0  0  0  0  0  0  0  0  0
    6.2581    1.1897    1.5569 C   0  0  0  0  0  0  0  0  0  0  0  0
    7.9626    1.2284    1.8345 Cl  0  0  0  0  0  0  0  0  0  0  0  0
    5.7731    1.8247    0.4114 C   0  0  0  0  0  0  0  0  0  0  0  0
    4.4027    1.8227    0.1417 C   0  0  0  0  0  0  0  0  0  0  0  0
    3.8502    2.6369   -1.2787 Cl  0  0  0  0  0  0  0  0  0  0  0  0
   -0.2782    1.2213    0.1541 H   0  0  0  0  0  0  0  0  0  0  0  0
   -2.3410   -0.7943   -1.7492 H   0  0  0  0  0  0  0  0  0  0  0  0
   -2.3712    0.9236    0.6531 H   0  0  0  0  0  0  0  0  0  0  0  0
   -2.7287   -0.8130    0.7009 H   0  0  0  0  0  0  0  0  0  0  0  0
   -4.5245   -0.4361   -1.0420 H   0  0  0  0  0  0  0  0  0  0  0  0
   -4.2107    1.2898   -0.9729 H   0  0  0  0  0  0  0  0  0  0  0  0
   -5.1378   -0.4390    1.3890 H   0  0  0  0  0  0  0  0  0  0  0  0
   -4.8299    2.6036    1.1645 H   0  0  0  0  0  0  0  0  0  0  0  0
   -3.9035    1.5241    2.2237 H   0  0  0  0  0  0  0  0  0  0  0  0
   -5.6272    1.7583    2.5020 H   0  0  0  0  0  0  0  0  0  0  0  0
   -7.3342    0.6667    1.0779 H   0  0  0  0  0  0  0  0  0  0  0  0
   -6.7210    1.5329   -0.3420 H   0  0  0  0  0  0  0  0  0  0  0  0
   -6.8729   -0.2332   -0.3725 H   0  0  0  0  0  0  0  0  0  0  0  0
    4.2775   -1.1658   -0.3415 H   0  0  0  0  0  0  0  0  0  0  0  0
    0.6093   -3.3994   -3.2963 H   0  0  0  0  0  0  0  0  0  0  0  0
    1.6810   -4.5374   -2.4239 H   0  0  0  0  0  0  0  0  0  0  0  0
    2.3130   -3.5727   -3.7999 H   0  0  0  0  0  0  0  0  0  0  0  0
    3.3043    0.0765    2.8445 H   0  0  0  0  0  0  0  0  0  0  0  0
    6.4595    2.3248   -0.2679 H   0  0  0  0  0  0  0  0  0  0  0  0
  1  2  1  0
  2  3  1  0
  3  4  1  0
  4  5  1  0
  5  6  1  0
  6  7  1  0
  6  8  1  0
  2  9  2  0
  9 10  1  0
 10 11  2  0
 11 12  1  0
 12 13  2  0
 13 14  1  0
 14 15  1  0
 11 16  1  0
 16 17  2  3
 17 18  1  0
 18 19  2  0
 19 20  1  0
 20 21  1  0
 20 22  2  0
 22 23  1  0
 22 24  1  0
 24 25  2  0
 25 26  1  0
 16  1  1  0
 25 18  1  0
 14 10  1  0
  1 27  1  0
  3 28  1  0
  4 29  1  0
  4 30  1  0
  5 31  1  0
  5 32  1  0
  6 33  1  0
  7 34  1  0
  7 35  1  0
  7 36  1  0
  8 37  1  0
  8 38  1  0
  8 39  1  0
 12 40  1  0
 15 41  1  0
 15 42  1  0
 15 43  1  0
 19 44  1  0
 24 45  1  0
M  END
>  <ScrubInfo>  (3) 
{"isomerGroup": 0, "isomerId": 2, "confId": 0, "nr_conformers:": 1, "nr_isomers:": 9}

$$$$
_i3
     RDKit          3D

 45 47  0  0  0  0  0  0  0  0999 V2000
   -0.4481   -1.4650    0.4147 N   0  0  0  0  0  0  0  0  0  0  0  0
   -0.7666   -0.1389    0.1681 C   0  0  0  0  0  0  0  0  0  0  0  0
   -1.9170    0.4103    0.3355 N   0  0  0  0  0  0  0  0  0  0  0  0
   -3.0310   -0.3880    0.8252 C   0  0  0  0  0  0  0  0  0  0  0  0
   -4.2874    0.4836    0.9074 C   0  0  0  0  0  0  0  0  0  0  0  0
   -5.0405    0.6552   -0.4278 C   0  0  0  0  0  0  0  0  0  0  0  0
   -6.3427    1.4248   -0.1871 C   0  0  0  0  0  0  0  0  0  0  0  0
   -4.2160    1.3671   -1.5000 C   0  0  0  0  0  0  0  0  0  0  0  0
    0.1861    0.7505   -0.3072 N   0  0  0  0  0  0  0  0  0  0  0  0
    1.4050    0.3420   -0.5184 C   0  0  0  0  0  0  0  0  0  0  0  0
    2.3812    1.1879   -0.9860 N   0  0  0  0  0  0  0  0  0  0  0  0
    3.6721    1.3225   -0.4069 C   0  0  0  0  0  0  0  0  0  0  0  0
    4.7444    1.4943   -1.2997 C   0  0  0  0  0  0  0  0  0  0  0  0
    6.0505    1.6866   -0.8367 C   0  0  0  0  0  0  0  0  0  0  0  0
    7.3034    1.8538   -2.0132 Cl  0  0  0  0  0  0  0  0  0  0  0  0
    6.2986    1.7411    0.5367 C   0  0  0  0  0  0  0  0  0  0  0  0
    7.8824    1.9758    1.1838 Cl  0  0  0  0  0  0  0  0  0  0  0  0
    5.2393    1.6199    1.4379 C   0  0  0  0  0  0  0  0  0  0  0  0
    3.9329    1.4292    0.9730 C   0  0  0  0  0  0  0  0  0  0  0  0
    2.6831    1.3800    2.1647 Cl  0  0  0  0  0  0  0  0  0  0  0  0
    1.7665   -1.0419   -0.3174 C   0  0  0  0  0  0  0  0  0  0  0  0
    2.8874   -1.8669   -0.4929 C   0  0  0  0  0  0  0  0  0  0  0  0
    2.6505   -3.1362   -0.1269 N   0  0  0  0  0  0  0  0  0  0  0  0
    1.3556   -3.1220    0.2741 N   0  0  0  0  0  0  0  0  0  0  0  0
    0.7519   -4.3459    0.7357 C   0  0  0  0  0  0  0  0  0  0  0  0
    0.8015   -1.8872    0.1569 C   0  0  0  0  0  0  0  0  0  0  0  0
   -1.1850   -2.0620    0.7573 H   0  0  0  0  0  0  0  0  0  0  0  0
   -2.8010   -0.7509    1.8343 H   0  0  0  0  0  0  0  0  0  0  0  0
   -3.2198   -1.2542    0.1804 H   0  0  0  0  0  0  0  0  0  0  0  0
   -4.0363    1.4666    1.3264 H   0  0  0  0  0  0  0  0  0  0  0  0
   -4.9728    0.0054    1.6196 H   0  0  0  0  0  0  0  0  0  0  0  0
   -5.3073   -0.3391   -0.8081 H   0  0  0  0  0  0  0  0  0  0  0  0
   -6.9194    1.5150   -1.1138 H   0  0  0  0  0  0  0  0  0  0  0  0
   -6.1438    2.4345    0.1883 H   0  0  0  0  0  0  0  0  0  0  0  0
   -6.9716    0.9078    0.5455 H   0  0  0  0  0  0  0  0  0  0  0  0
   -3.3689    0.7543   -1.8218 H   0  0  0  0  0  0  0  0  0  0  0  0
   -4.8229    1.5635   -2.3908 H   0  0  0  0  0  0  0  0  0  0  0  0
   -3.8321    2.3259   -1.1360 H   0  0  0  0  0  0  0  0  0  0  0  0
    1.9633    2.1150   -1.0688 H   0  0  0  0  0  0  0  0  0  0  0  0
    4.5559    1.4573   -2.3720 H   0  0  0  0  0  0  0  0  0  0  0  0
    5.4290    1.6879    2.5073 H   0  0  0  0  0  0  0  0  0  0  0  0
    3.8685   -1.6143   -0.8715 H   0  0  0  0  0  0  0  0  0  0  0  0
    0.7076   -5.0443   -0.1037 H   0  0  0  0  0  0  0  0  0  0  0  0
   -0.2548   -4.1472    1.1088 H   0  0  0  0  0  0  0  0  0  0  0  0
    1.3684   -4.7539    1.5407 H   0  0  0  0  0  0  0  0  0  0  0  0
  1  2  1  0
  2  3  2  3
  3  4  1  0
  4  5  1  0
  5  6  1  0
  6  7  1  0
  6  8  1  0
  2  9  1  0
  9 10  2  0
 10 11  1  0
 11 12  1  0
 12 13  2  0
 13 14  1  0
 14 15  1  0
 14 16  2  0
 16 17  1  0
 16 18  1  0
 18 19  2  0
 19 20  1  0
 10 21  1  0
 21 22  1  0
 22 23  2  0
 23 24  1  0
 24 25  1  0
 24 26  1  0
 26  1  1  0
 19 12  1  0
 26 21  2  0
  1 27  1  0
  4 28  1  0
  4 29  1  0
  5 30  1  0
  5 31  1  0
  6 32  1  0
  7 33  1  0
  7 34  1  0
  7 35  1  0
  8 36  1  0
  8 37  1  0
  8 38  1  0
 11 39  1  0
 13 40  1  0
 18 41  1  0
 22 42  1  0
 25 43  1  0
 25 44  1  0
 25 45  1  0
M  END
>  <ScrubInfo>  (4) 
{"isomerGroup": 0, "isomerId": 3, "confId": 0, "nr_conformers:": 1, "nr_isomers:": 9}

$$$$
_i4
     RDKit          3D

 45 47  0  0  0  0  0  0  0  0999 V2000
   -1.8460   -4.8336    1.0637 N   0  0  0  0  0  0  0  0  0  0  0  0
   -2.4575   -3.6387    0.6973 C   0  0  0  0  0  0  0  0  0  0  0  0
   -1.6052   -2.6063    0.6736 C   0  0  0  0  0  0  0  0  0  0  0  0
   -1.6558   -1.1888    0.4077 C   0  0  0  0  0  0  0  0  0  0  0  0
   -2.7420   -0.5855    0.0350 N   0  0  0  0  0  0  0  0  0  0  0  0
   -2.6696    0.7964   -0.2199 C   0  0  0  0  0  0  0  0  0  0  0  0
   -3.0158    1.6855    0.8043 C   0  0  0  0  0  0  0  0  0  0  0  0
   -2.9619    3.0663    0.5979 C   0  0  0  0  0  0  0  0  0  0  0  0
   -3.3850    4.0945    1.9204 Cl  0  0  0  0  0  0  0  0  0  0  0  0
   -2.5743    3.5706   -0.6486 C   0  0  0  0  0  0  0  0  0  0  0  0
   -2.4770    5.2650   -0.9726 Cl  0  0  0  0  0  0  0  0  0  0  0  0
   -2.2482    2.6941   -1.6852 C   0  0  0  0  0  0  0  0  0  0  0  0
   -2.2953    1.3149   -1.4716 C   0  0  0  0  0  0  0  0  0  0  0  0
   -1.8769    0.2747   -2.7880 Cl  0  0  0  0  0  0  0  0  0  0  0  0
   -0.4680   -0.5339    0.5923 N   0  0  0  0  0  0  0  0  0  0  0  0
    0.6237   -1.1503    0.9360 C   0  0  0  0  0  0  0  0  0  0  0  0
    1.7856   -0.4570    1.1138 N   0  0  0  0  0  0  0  0  0  0  0  0
    2.0223    0.8632    0.5674 C   0  0  0  0  0  0  0  0  0  0  0  0
    2.3260    0.7773   -0.9301 C   0  0  0  0  0  0  0  0  0  0  0  0
    2.7674    2.1195   -1.5413 C   0  0  0  0  0  0  0  0  0  0  0  0
    1.6574    3.1702   -1.5020 C   0  0  0  0  0  0  0  0  0  0  0  0
    3.2226    1.9068   -2.9872 C   0  0  0  0  0  0  0  0  0  0  0  0
    0.7450   -2.5005    1.1445 N   0  0  0  0  0  0  0  0  0  0  0  0
   -0.3152   -3.2192    1.0110 C   0  0  0  0  0  0  0  0  0  0  0  0
   -0.4746   -4.5993    1.1504 N   0  0  0  0  0  0  0  0  0  0  0  0
    0.3056   -5.3450    2.1192 C   0  0  0  0  0  0  0  0  0  0  0  0
   -2.1301   -5.6257    0.4821 H   0  0  0  0  0  0  0  0  0  0  0  0
   -3.5131   -3.6247    0.4649 H   0  0  0  0  0  0  0  0  0  0  0  0
   -3.3163    1.2859    1.7697 H   0  0  0  0  0  0  0  0  0  0  0  0
   -1.9524    3.0825   -2.6564 H   0  0  0  0  0  0  0  0  0  0  0  0
    2.5924   -1.0665    1.1640 H   0  0  0  0  0  0  0  0  0  0  0  0
    2.8795    1.3003    1.0918 H   0  0  0  0  0  0  0  0  0  0  0  0
    1.1648    1.5152    0.7644 H   0  0  0  0  0  0  0  0  0  0  0  0
    3.1223    0.0370   -1.0850 H   0  0  0  0  0  0  0  0  0  0  0  0
    1.4473    0.3963   -1.4662 H   0  0  0  0  0  0  0  0  0  0  0  0
    3.6241    2.5017   -0.9720 H   0  0  0  0  0  0  0  0  0  0  0  0
    1.3695    3.4134   -0.4751 H   0  0  0  0  0  0  0  0  0  0  0  0
    1.9884    4.1011   -1.9751 H   0  0  0  0  0  0  0  0  0  0  0  0
    0.7673    2.8216   -2.0347 H   0  0  0  0  0  0  0  0  0  0  0  0
    4.0494    1.1902   -3.0339 H   0  0  0  0  0  0  0  0  0  0  0  0
    2.4059    1.5239   -3.6089 H   0  0  0  0  0  0  0  0  0  0  0  0
    3.5722    2.8466   -3.4277 H   0  0  0  0  0  0  0  0  0  0  0  0
    1.3762   -5.1846    1.9569 H   0  0  0  0  0  0  0  0  0  0  0  0
    0.1097   -6.4176    2.0210 H   0  0  0  0  0  0  0  0  0  0  0  0
    0.0557   -5.0375    3.1400 H   0  0  0  0  0  0  0  0  0  0  0  0
  1  2  1  0
  2  3  2  0
  3  4  1  0
  4  5  2  3
  5  6  1  0
  6  7  2  0
  7  8  1  0
  8  9  1  0
  8 10  2  0
 10 11  1  0
 10 12  1  0
 12 13  2  0
 13 14  1  0
  4 15  1  0
 15 16  2  0
 16 17  1  0
 17 18  1  0
 18 19  1  0
 19 20  1  0
 20 21  1  0
 20 22  1  0
 16 23  1  0
 23 24  2  0
 24 25  1  0
 25 26  1  0
 25  1  1  0
 24  3  1  0
 13  6  1  0
  1 27  1  0
  2 28  1  0
  7 29  1  0
 12 30  1  0
 17 31  1  0
 18 32  1  0
 18 33  1  0
 19 34  1  0
 19 35  1  0
 20 36  1  0
 21 37  1  0
 21 38  1  0
 21 39  1  0
 22 40  1  0
 22 41  1  0
 22 42  1  0
 26 43  1  0
 26 44  1  0
 26 45  1  0
M  END
>  <ScrubInfo>  (5) 
{"isomerGroup": 0, "isomerId": 4, "confId": 0, "nr_conformers:": 1, "nr_isomers:": 9}

$$$$
_i5
     RDKit          3D

 45 47  0  0  0  0  0  0  0  0999 V2000
   -0.3471    0.2434    0.9602 N   0  0  0  0  0  0  0  0  0  0  0  0
   -0.6085   -0.3115   -0.2664 C   0  0  0  0  0  0  0  0  0  0  0  0
   -1.9238   -0.5839   -0.5105 N   0  0  0  0  0  0  0  0  0  0  0  0
   -2.7078   -1.4227    0.3868 C   0  0  0  0  0  0  0  0  0  0  0  0
   -4.1668   -1.4936   -0.0723 C   0  0  0  0  0  0  0  0  0  0  0  0
   -5.0403   -0.3026    0.3737 C   0  0  0  0  0  0  0  0  0  0  0  0
   -6.4977   -0.5591   -0.0216 C   0  0  0  0  0  0  0  0  0  0  0  0
   -4.5808    1.0352   -0.2054 C   0  0  0  0  0  0  0  0  0  0  0  0
    0.2776   -0.5671   -1.1854 N   0  0  0  0  0  0  0  0  0  0  0  0
    1.6165   -0.2774   -0.9554 C   0  0  0  0  0  0  0  0  0  0  0  0
    2.4324   -0.5897   -1.9118 N   0  0  0  0  0  0  0  0  0  0  0  0
    3.8077   -0.3453   -1.8556 C   0  0  0  0  0  0  0  0  0  0  0  0
    4.6532   -1.3864   -1.4544 C   0  0  0  0  0  0  0  0  0  0  0  0
    6.0401   -1.2125   -1.4336 C   0  0  0  0  0  0  0  0  0  0  0  0
    7.0084   -2.5431   -0.9086 Cl  0  0  0  0  0  0  0  0  0  0  0  0
    6.5958    0.0088   -1.8310 C   0  0  0  0  0  0  0  0  0  0  0  0
    8.2994    0.2953   -1.8260 Cl  0  0  0  0  0  0  0  0  0  0  0  0
    5.7648    1.0489   -2.2532 C   0  0  0  0  0  0  0  0  0  0  0  0
    4.3796    0.8695   -2.2736 C   0  0  0  0  0  0  0  0  0  0  0  0
    3.3972    2.1865   -2.8081 Cl  0  0  0  0  0  0  0  0  0  0  0  0
    1.9421    0.3310    0.3246 C   0  0  0  0  0  0  0  0  0  0  0  0
    3.0832    0.8027    0.9976 C   0  0  0  0  0  0  0  0  0  0  0  0
    2.8051    1.3073    2.2098 N   0  0  0  0  0  0  0  0  0  0  0  0
    1.4653    1.1613    2.3187 N   0  0  0  0  0  0  0  0  0  0  0  0
    0.8073    1.6075    3.5201 C   0  0  0  0  0  0  0  0  0  0  0  0
    0.9296    0.5694    1.2205 C   0  0  0  0  0  0  0  0  0  0  0  0
   -1.1400    0.5885    1.4838 H   0  0  0  0  0  0  0  0  0  0  0  0
   -1.9907   -0.9282   -1.4683 H   0  0  0  0  0  0  0  0  0  0  0  0
   -2.6580   -1.0613    1.4196 H   0  0  0  0  0  0  0  0  0  0  0  0
   -2.2821   -2.4331    0.3715 H   0  0  0  0  0  0  0  0  0  0  0  0
   -4.6008   -2.4057    0.3586 H   0  0  0  0  0  0  0  0  0  0  0  0
   -4.2184   -1.6103   -1.1624 H   0  0  0  0  0  0  0  0  0  0  0  0
   -5.0003   -0.2313    1.4682 H   0  0  0  0  0  0  0  0  0  0  0  0
   -6.6072   -0.6330   -1.1090 H   0  0  0  0  0  0  0  0  0  0  0  0
   -7.1454    0.2509    0.3303 H   0  0  0  0  0  0  0  0  0  0  0  0
   -6.8635   -1.4918    0.4209 H   0  0  0  0  0  0  0  0  0  0  0  0
   -3.6112    1.3333    0.2039 H   0  0  0  0  0  0  0  0  0  0  0  0
   -5.2900    1.8317    0.0456 H   0  0  0  0  0  0  0  0  0  0  0  0
   -4.4981    0.9896   -1.2964 H   0  0  0  0  0  0  0  0  0  0  0  0
    4.2162   -2.3400   -1.1654 H   0  0  0  0  0  0  0  0  0  0  0  0
    6.1940    1.9963   -2.5705 H   0  0  0  0  0  0  0  0  0  0  0  0
    4.1153    0.8148    0.6793 H   0  0  0  0  0  0  0  0  0  0  0  0
    0.9035    2.6945    3.5799 H   0  0  0  0  0  0  0  0  0  0  0  0
    1.2918    1.1330    4.3774 H   0  0  0  0  0  0  0  0  0  0  0  0
   -0.2479    1.3280    3.4937 H   0  0  0  0  0  0  0  0  0  0  0  0
  1  2  1  0
  2  3  1  0
  3  4  1  0
  4  5  1  0
  5  6  1  0
  6  7  1  0
  6  8  1  0
  2  9  2  0
  9 10  1  0
 10 11  2  3
 11 12  1  0
 12 13  2  0
 13 14  1  0
 14 15  1  0
 14 16  2  0
 16 17  1  0
 16 18  1  0
 18 19  2  0
 19 20  1  0
 10 21  1  0
 21 22  1  0
 22 23  2  0
 23 24  1  0
 24 25  1  0
 24 26  1  0
 26  1  1  0
 19 12  1  0
 26 21  2  0
  1 27  1  0
  3 28  1  0
  4 29  1  0
  4 30  1  0
  5 31  1  0
  5 32  1  0
  6 33  1  0
  7 34  1  0
  7 35  1  0
  7 36  1  0
  8 37  1  0
  8 38  1  0
  8 39  1  0
 13 40  1  0
 18 41  1  0
 22 42  1  0
 25 43  1  0
 25 44  1  0
 25 45  1  0
M  END
>  <ScrubInfo>  (6) 
{"isomerGroup": 0, "isomerId": 5, "confId": 0, "nr_conformers:": 1, "nr_isomers:": 9}

$$$$
_i6
     RDKit          3D

 45 47  0  0  0  0  0  0  0  0999 V2000
   -2.4094   -2.9623    0.5437 N   0  0  0  0  0  0  0  0  0  0  0  0
   -2.7068   -1.6052    0.6047 C   0  0  0  0  0  0  0  0  0  0  0  0
   -1.6831   -0.8279    0.2266 C   0  0  0  0  0  0  0  0  0  0  0  0
   -1.3588    0.5915    0.1014 C   0  0  0  0  0  0  0  0  0  0  0  0
   -2.2428    1.6211    0.3548 N   0  0  0  0  0  0  0  0  0  0  0  0
   -3.6048    1.6053   -0.0300 C   0  0  0  0  0  0  0  0  0  0  0  0
   -4.5411    2.0271    0.9282 C   0  0  0  0  0  0  0  0  0  0  0  0
   -5.9051    2.0978    0.6255 C   0  0  0  0  0  0  0  0  0  0  0  0
   -6.9823    2.5906    1.8819 Cl  0  0  0  0  0  0  0  0  0  0  0  0
   -6.3488    1.7749   -0.6593 C   0  0  0  0  0  0  0  0  0  0  0  0
   -8.0158    1.8337   -1.1062 Cl  0  0  0  0  0  0  0  0  0  0  0  0
   -5.4267    1.3985   -1.6377 C   0  0  0  0  0  0  0  0  0  0  0  0
   -4.0634    1.3287   -1.3320 C   0  0  0  0  0  0  0  0  0  0  0  0
   -2.9882    0.9269   -2.6230 Cl  0  0  0  0  0  0  0  0  0  0  0  0
   -0.1456    0.9202   -0.2458 N   0  0  0  0  0  0  0  0  0  0  0  0
    0.7728   -0.0750   -0.5013 C   0  0  0  0  0  0  0  0  0  0  0  0
    1.9481    0.3702   -0.7741 N   0  0  0  0  0  0  0  0  0  0  0  0
    2.9958   -0.6057   -1.0599 C   0  0  0  0  0  0  0  0  0  0  0  0
    4.3190    0.1268   -1.3037 C   0  0  0  0  0  0  0  0  0  0  0  0
    5.0830    0.5193   -0.0225 C   0  0  0  0  0  0  0  0  0  0  0  0
    4.3176    1.5049    0.8602 C   0  0  0  0  0  0  0  0  0  0  0  0
    6.4426    1.1163   -0.3984 C   0  0  0  0  0  0  0  0  0  0  0  0
    0.5436   -1.4327   -0.4904 N   0  0  0  0  0  0  0  0  0  0  0  0
   -0.6402   -1.8070   -0.1493 C   0  0  0  0  0  0  0  0  0  0  0  0
   -1.1569   -3.0990   -0.0457 N   0  0  0  0  0  0  0  0  0  0  0  0
   -0.3105   -4.2116    0.3419 C   0  0  0  0  0  0  0  0  0  0  0  0
   -3.1590   -3.5296    0.1408 H   0  0  0  0  0  0  0  0  0  0  0  0
   -3.6884   -1.3014    0.9368 H   0  0  0  0  0  0  0  0  0  0  0  0
   -1.8036    2.5036    0.0922 H   0  0  0  0  0  0  0  0  0  0  0  0
   -4.1984    2.2874    1.9290 H   0  0  0  0  0  0  0  0  0  0  0  0
   -5.7687    1.1719   -2.6456 H   0  0  0  0  0  0  0  0  0  0  0  0
    3.1166   -1.3253   -0.2413 H   0  0  0  0  0  0  0  0  0  0  0  0
    2.7402   -1.1567   -1.9737 H   0  0  0  0  0  0  0  0  0  0  0  0
    4.9638   -0.5449   -1.8857 H   0  0  0  0  0  0  0  0  0  0  0  0
    4.1482    1.0143   -1.9266 H   0  0  0  0  0  0  0  0  0  0  0  0
    5.2696   -0.3891    0.5645 H   0  0  0  0  0  0  0  0  0  0  0  0
    4.9378    1.8379    1.6996 H   0  0  0  0  0  0  0  0  0  0  0  0
    4.0119    2.3915    0.2948 H   0  0  0  0  0  0  0  0  0  0  0  0
    3.4240    1.0424    1.2895 H   0  0  0  0  0  0  0  0  0  0  0  0
    7.0283    0.4079   -0.9939 H   0  0  0  0  0  0  0  0  0  0  0  0
    6.3249    2.0354   -0.9826 H   0  0  0  0  0  0  0  0  0  0  0  0
    7.0244    1.3562    0.4980 H   0  0  0  0  0  0  0  0  0  0  0  0
    0.5538   -4.2889   -0.3255 H   0  0  0  0  0  0  0  0  0  0  0  0
   -0.8665   -5.1526    0.2789 H   0  0  0  0  0  0  0  0  0  0  0  0
    0.0490   -4.0876    1.3687 H   0  0  0  0  0  0  0  0  0  0  0  0
  1  2  1  0
  2  3  2  0
  3  4  1  0
  4  5  1  0
  5  6  1  0
  6  7  2  0
  7  8  1  0
  8  9  1  0
  8 10  2  0
 10 11  1  0
 10 12  1  0
 12 13  2  0
 13 14  1  0
  4 15  2  0
 15 16  1  0
 16 17  2  3
 17 18  1  0
 18 19  1  0
 19 20  1  0
 20 21  1  0
 20 22  1  0
 16 23  1  0
 23 24  2  0
 24 25  1  0
 25 26  1  0
 25  1  1  0
 24  3  1  0
 13  6  1  0
  1 27  1  0
  2 28  1  0
  5 29  1  0
  7 30  1  0
 12 31  1  0
 18 32  1  0
 18 33  1  0
 19 34  1  0
 19 35  1  0
 20 36  1  0
 21 37  1  0
 21 38  1  0
 21 39  1  0
 22 40  1  0
 22 41  1  0
 22 42  1  0
 26 43  1  0
 26 44  1  0
 26 45  1  0
M  END
>  <ScrubInfo>  (7) 
{"isomerGroup": 0, "isomerId": 6, "confId": 0, "nr_conformers:": 1, "nr_isomers:": 9}

$$$$
_i7
     RDKit          3D

 45 47  0  0  0  0  0  0  0  0999 V2000
   -2.6552   -2.6541    0.4064 N   0  0  0  0  0  0  0  0  0  0  0  0
   -2.9313   -1.3067    0.2045 C   0  0  0  0  0  0  0  0  0  0  0  0
   -1.8627   -0.5908   -0.1740 C   0  0  0  0  0  0  0  0  0  0  0  0
   -1.4797    0.8002   -0.4880 C   0  0  0  0  0  0  0  0  0  0  0  0
   -2.2200    1.8690   -0.5310 N   0  0  0  0  0  0  0  0  0  0  0  0
   -3.6000    1.8145   -0.2915 C   0  0  0  0  0  0  0  0  0  0  0  0
   -4.0656    2.1347    0.9888 C   0  0  0  0  0  0  0  0  0  0  0  0
   -5.4350    2.1384    1.2701 C   0  0  0  0  0  0  0  0  0  0  0  0
   -5.9225    2.5230    2.8817 Cl  0  0  0  0  0  0  0  0  0  0  0  0
   -6.3553    1.8337    0.2608 C   0  0  0  0  0  0  0  0  0  0  0  0
   -8.0598    1.8099    0.5392 Cl  0  0  0  0  0  0  0  0  0  0  0  0
   -5.9047    1.5318   -1.0262 C   0  0  0  0  0  0  0  0  0  0  0  0
   -4.5355    1.5292   -1.3018 C   0  0  0  0  0  0  0  0  0  0  0  0
   -4.0301    1.1473   -2.9093 Cl  0  0  0  0  0  0  0  0  0  0  0  0
   -0.1435    0.9197   -0.7547 N   0  0  0  0  0  0  0  0  0  0  0  0
    0.7938   -0.0735   -0.7720 C   0  0  0  0  0  0  0  0  0  0  0  0
    2.0198    0.2447   -1.0302 N   0  0  0  0  0  0  0  0  0  0  0  0
    3.0048   -0.8374   -1.0418 C   0  0  0  0  0  0  0  0  0  0  0  0
    4.3956   -0.2539   -1.3093 C   0  0  0  0  0  0  0  0  0  0  0  0
    5.1000    0.3269   -0.0659 C   0  0  0  0  0  0  0  0  0  0  0  0
    4.3576    1.5117    0.5515 C   0  0  0  0  0  0  0  0  0  0  0  0
    6.5252    0.7501   -0.4345 C   0  0  0  0  0  0  0  0  0  0  0  0
    0.4561   -1.3871   -0.5260 N   0  0  0  0  0  0  0  0  0  0  0  0
   -0.7868   -1.6432   -0.2608 C   0  0  0  0  0  0  0  0  0  0  0  0
   -1.3509   -2.8934    0.0014 N   0  0  0  0  0  0  0  0  0  0  0  0
   -0.5861   -3.9382    0.6555 C   0  0  0  0  0  0  0  0  0  0  0  0
   -3.3668   -3.2806    0.0222 H   0  0  0  0  0  0  0  0  0  0  0  0
   -3.9430   -0.9708    0.3706 H   0  0  0  0  0  0  0  0  0  0  0  0
   -3.3466    2.3871    1.7653 H   0  0  0  0  0  0  0  0  0  0  0  0
   -6.6180    1.3037   -1.8148 H   0  0  0  0  0  0  0  0  0  0  0  0
    0.2034    1.8414   -0.9745 H   0  0  0  0  0  0  0  0  0  0  0  0
    2.7671   -1.5353   -1.8543 H   0  0  0  0  0  0  0  0  0  0  0  0
    3.0108   -1.3914   -0.0955 H   0  0  0  0  0  0  0  0  0  0  0  0
    5.0227   -1.0658   -1.7008 H   0  0  0  0  0  0  0  0  0  0  0  0
    4.3389    0.5064   -2.0989 H   0  0  0  0  0  0  0  0  0  0  0  0
    5.1733   -0.4618    0.6937 H   0  0  0  0  0  0  0  0  0  0  0  0
    3.4029    1.1999    0.9852 H   0  0  0  0  0  0  0  0  0  0  0  0
    4.9441    1.9587    1.3617 H   0  0  0  0  0  0  0  0  0  0  0  0
    4.1626    2.2911   -0.1927 H   0  0  0  0  0  0  0  0  0  0  0  0
    7.0622    1.1194    0.4458 H   0  0  0  0  0  0  0  0  0  0  0  0
    7.0915   -0.0963   -0.8372 H   0  0  0  0  0  0  0  0  0  0  0  0
    6.5211    1.5454   -1.1877 H   0  0  0  0  0  0  0  0  0  0  0  0
    0.3396   -4.1400    0.1070 H   0  0  0  0  0  0  0  0  0  0  0  0
   -1.1630   -4.8681    0.6893 H   0  0  0  0  0  0  0  0  0  0  0  0
   -0.3310   -3.6495    1.6804 H   0  0  0  0  0  0  0  0  0  0  0  0
  1  2  1  0
  2  3  2  0
  3  4  1  0
  4  5  2  3
  5  6  1  0
  6  7  2  0
  7  8  1  0
  8  9  1  0
  8 10  2  0
 10 11  1  0
 10 12  1  0
 12 13  2  0
 13 14  1  0
  4 15  1  0
 15 16  1  0
 16 17  2  3
 17 18  1  0
 18 19  1  0
 19 20  1  0
 20 21  1  0
 20 22  1  0
 16 23  1  0
 23 24  2  0
 24 25  1  0
 25 26  1  0
 25  1  1  0
 24  3  1  0
 13  6  1  0
  1 27  1  0
  2 28  1  0
  7 29  1  0
 12 30  1  0
 15 31  1  0
 18 32  1  0
 18 33  1  0
 19 34  1  0
 19 35  1  0
 20 36  1  0
 21 37  1  0
 21 38  1  0
 21 39  1  0
 22 40  1  0
 22 41  1  0
 22 42  1  0
 26 43  1  0
 26 44  1  0
 26 45  1  0
M  END
>  <ScrubInfo>  (8) 
{"isomerGroup": 0, "isomerId": 7, "confId": 0, "nr_conformers:": 1, "nr_isomers:": 9}

$$$$
_i8
     RDKit          3D

 45 47  0  0  0  0  0  0  0  0999 V2000
   -0.3938   -1.3993    0.4256 N   0  0  0  0  0  0  0  0  0  0  0  0
   -0.8381   -0.0887    0.4671 C   0  0  0  0  0  0  0  0  0  0  0  0
   -2.0498    0.3343    0.5937 N   0  0  0  0  0  0  0  0  0  0  0  0
   -3.1248   -0.6455    0.7064 C   0  0  0  0  0  0  0  0  0  0  0  0
   -4.4693    0.0803    0.8057 C   0  0  0  0  0  0  0  0  0  0  0  0
   -5.0620    0.5251   -0.5472 C   0  0  0  0  0  0  0  0  0  0  0  0
   -6.4606    1.1096   -0.3272 C   0  0  0  0  0  0  0  0  0  0  0  0
   -4.1916    1.5433   -1.2833 C   0  0  0  0  0  0  0  0  0  0  0  0
    0.1769    0.8353    0.3548 N   0  0  0  0  0  0  0  0  0  0  0  0
    1.5401    0.6915    0.2183 C   0  0  0  0  0  0  0  0  0  0  0  0
    2.3212    1.7275    0.1436 N   0  0  0  0  0  0  0  0  0  0  0  0
    3.7136    1.6238    0.0415 C   0  0  0  0  0  0  0  0  0  0  0  0
    4.2976    1.7093   -1.2276 C   0  0  0  0  0  0  0  0  0  0  0  0
    5.6869    1.6643   -1.3782 C   0  0  0  0  0  0  0  0  0  0  0  0
    6.3236    1.7595   -2.9810 Cl  0  0  0  0  0  0  0  0  0  0  0  0
    6.5077    1.5469   -0.2507 C   0  0  0  0  0  0  0  0  0  0  0  0
    8.2302    1.4816   -0.3632 Cl  0  0  0  0  0  0  0  0  0  0  0  0
    5.9383    1.4814    1.0230 C   0  0  0  0  0  0  0  0  0  0  0  0
    4.5499    1.5286    1.1682 C   0  0  0  0  0  0  0  0  0  0  0  0
    3.8949    1.4544    2.7655 Cl  0  0  0  0  0  0  0  0  0  0  0  0
    1.9090   -0.7139    0.1705 C   0  0  0  0  0  0  0  0  0  0  0  0
    3.0841   -1.4718    0.0162 C   0  0  0  0  0  0  0  0  0  0  0  0
    2.8605   -2.7935    0.0352 N   0  0  0  0  0  0  0  0  0  0  0  0
    1.5254   -2.8922    0.2128 N   0  0  0  0  0  0  0  0  0  0  0  0
    0.9178   -4.1974    0.2813 C   0  0  0  0  0  0  0  0  0  0  0  0
    0.9236   -1.6729    0.2819 C   0  0  0  0  0  0  0  0  0  0  0  0
   -1.0944   -2.1235    0.5056 H   0  0  0  0  0  0  0  0  0  0  0  0
   -2.9838   -1.2322    1.6224 H   0  0  0  0  0  0  0  0  0  0  0  0
   -3.1330   -1.3328   -0.1475 H   0  0  0  0  0  0  0  0  0  0  0  0
   -4.3823    0.9423    1.4796 H   0  0  0  0  0  0  0  0  0  0  0  0
   -5.1825   -0.6117    1.2726 H   0  0  0  0  0  0  0  0  0  0  0  0
   -5.1683   -0.3588   -1.1890 H   0  0  0  0  0  0  0  0  0  0  0  0
   -6.9220    1.3864   -1.2811 H   0  0  0  0  0  0  0  0  0  0  0  0
   -6.4223    2.0045    0.3034 H   0  0  0  0  0  0  0  0  0  0  0  0
   -7.1165    0.3795    0.1587 H   0  0  0  0  0  0  0  0  0  0  0  0
   -3.2487    1.0963   -1.6116 H   0  0  0  0  0  0  0  0  0  0  0  0
   -4.6990    1.9112   -2.1819 H   0  0  0  0  0  0  0  0  0  0  0  0
   -3.9641    2.4059   -0.6481 H   0  0  0  0  0  0  0  0  0  0  0  0
   -0.1400    1.7933    0.4001 H   0  0  0  0  0  0  0  0  0  0  0  0
    3.6561    1.8168   -2.0995 H   0  0  0  0  0  0  0  0  0  0  0  0
    6.5738    1.3987    1.9015 H   0  0  0  0  0  0  0  0  0  0  0  0
    4.1043   -1.1425   -0.1164 H   0  0  0  0  0  0  0  0  0  0  0  0
    0.6645   -4.5079   -0.7351 H   0  0  0  0  0  0  0  0  0  0  0  0
    0.0196   -4.1479    0.9009 H   0  0  0  0  0  0  0  0  0  0  0  0
    1.6272   -4.8990    0.7281 H   0  0  0  0  0  0  0  0  0  0  0  0
  1  2  1  0
  2  3  2  3
  3  4  1  0
  4  5  1  0
  5  6  1  0
  6  7  1  0
  6  8  1  0
  2  9  1  0
  9 10  1  0
 10 11  2  3
 11 12  1  0
 12 13  2  0
 13 14  1  0
 14 15  1  0
 14 16  2  0
 16 17  1  0
 16 18  1  0
 18 19  2  0
 19 20  1  0
 10 21  1  0
 21 22  1  0
 22 23  2  0
 23 24  1  0
 24 25  1  0
 24 26  1  0
 26  1  1  0
 19 12  1  0
 26 21  2  0
  1 27  1  0
  4 28  1  0
  4 29  1  0
  5 30  1  0
  5 31  1  0
  6 32  1  0
  7 33  1  0
  7 34  1  0
  7 35  1  0
  8 36  1  0
  8 37  1  0
  8 38  1  0
  9 39  1  0
 13 40  1  0
 18 41  1  0
 22 42  1  0
 25 43  1  0
 25 44  1  0
 25 45  1  0
M  END
>  <ScrubInfo>  (9) 
{"isomerGroup": 0, "isomerId": 8, "confId": 0, "nr_conformers:": 1, "nr_isomers:": 9}

$$$$
