REMARK SMILES Cc1ccc(Nc2nc(NCCC[NH+](C)C)nc3nccnc23)cc1
REMARK SMILES IDX 11 1 12 2 13 3 14 4 15 5 16 6 10 8 9 10 8 11 17 12 7 13
REMARK SMILES IDX 18 14 23 15 19 16 22 17 20 18 21 19 6 20 5 22 4 23 24 24
REMARK SMILES IDX 3 25 25 26 2 27 1 28
REMARK H PARENT 14 7 10 9 6 21
ROOT
ATOM      1  C   UNL     1       2.557   1.323   0.480  1.00  0.00     0.122 C 
ENDROOT
BRANCH   1   2
ATOM      2  C   UNL     1       3.753   0.372   0.604  1.00  0.00     0.083 C 
BRANCH   2   3
ATOM      3  C   UNL     1       3.684  -0.778  -0.397  1.00  0.00     0.263 C 
BRANCH   3   4
ATOM      4  N   UNL     1       4.905  -1.682  -0.346  1.00  0.00    -0.340 N 
ATOM      5  C   UNL     1       5.060  -2.418   0.954  1.00  0.00     0.332 C 
ATOM      6  C   UNL     1       6.177  -1.030  -0.799  1.00  0.00     0.332 C 
ATOM      7  H   UNL     1       4.701  -2.406  -1.047  1.00  0.00     0.347 HD
ENDBRANCH   3   4
ENDBRANCH   2   3
ENDBRANCH   1   2
BRANCH   1   8
ATOM      8  N   UNL     1       1.327   0.651   0.864  1.00  0.00    -0.354 N 
ATOM      9  H   UNL     1       0.758   1.175   1.532  1.00  0.00     0.163 HD
BRANCH   8  10
ATOM     10  C   UNL     1       0.451   0.381  -0.183  1.00  0.00     0.226 A 
ATOM     11  N   UNL     1      -0.836   0.575   0.069  1.00  0.00    -0.193 NA
ATOM     12  N   UNL     1       0.928  -0.076  -1.337  1.00  0.00    -0.191 NA
ATOM     13  C   UNL     1      -1.719   0.311  -0.915  1.00  0.00     0.164 A 
ATOM     14  C   UNL     1       0.057  -0.340  -2.302  1.00  0.00     0.185 A 
ATOM     15  C   UNL     1      -1.326  -0.162  -2.165  1.00  0.00     0.150 A 
ATOM     16  N   UNL     1       0.562  -0.798  -3.452  1.00  0.00    -0.233 NA
ATOM     17  N   UNL     1      -2.203  -0.422  -3.182  1.00  0.00    -0.247 NA
ATOM     18  C   UNL     1      -0.306  -1.062  -4.458  1.00  0.00     0.133 A 
ATOM     19  C   UNL     1      -1.665  -0.877  -4.329  1.00  0.00     0.132 A 
BRANCH  13  20
ATOM     20  N   UNL     1      -3.115   0.467  -0.698  1.00  0.00    -0.338 N 
ATOM     21  H   UNL     1      -3.604   0.559  -1.587  1.00  0.00     0.168 HD
BRANCH  20  22
ATOM     22  C   UNL     1      -3.858   0.881   0.419  1.00  0.00     0.040 A 
ATOM     23  C   UNL     1      -3.357   0.898   1.724  1.00  0.00     0.026 A 
ATOM     24  C   UNL     1      -5.199   1.253   0.233  1.00  0.00     0.026 A 
ATOM     25  C   UNL     1      -4.155   1.299   2.803  1.00  0.00     0.005 A 
ATOM     26  C   UNL     1      -6.001   1.655   1.307  1.00  0.00     0.005 A 
ATOM     27  C   UNL     1      -5.487   1.671   2.605  1.00  0.00    -0.051 A 
ATOM     28  C   UNL     1      -6.332   2.131   3.755  1.00  0.00     0.044 C 
ENDBRANCH  20  22
ENDBRANCH  13  20
ENDBRANCH   8  10
ENDBRANCH   1   8
TORSDOF 7
