_i0
     RDKit          3D

 49 51  0  0  0  0  0  0  0  0999 V2000
    3.6845   -0.7776   -0.3971 C   0  0  0  0  0  0  0  0  0  0  0  0
    4.9050   -1.6816   -0.3456 N   0  0  0  0  0  4  0  0  0  0  0  0
    5.0601   -2.4177    0.9536 C   0  0  0  0  0  0  0  0  0  0  0  0
    6.1766   -1.0299   -0.7988 C   0  0  0  0  0  0  0  0  0  0  0  0
    3.7527    0.3725    0.6038 C   0  0  0  0  0  0  0  0  0  0  0  0
    2.5573    1.3232    0.4801 C   0  0  0  0  0  0  0  0  0  0  0  0
    1.3265    0.6515    0.8640 N   0  0  0  0  0  0  0  0  0  0  0  0
    0.4512    0.3812   -0.1830 C   0  0  0  0  0  0  0  0  0  0  0  0
   -0.8356    0.5752    0.0689 N   0  0  0  0  0  0  0  0  0  0  0  0
    0.9285   -0.0758   -1.3373 N   0  0  0  0  0  0  0  0  0  0  0  0
   -1.7192    0.3113   -0.9150 C   0  0  0  0  0  0  0  0  0  0  0  0
    0.0569   -0.3401   -2.3016 C   0  0  0  0  0  0  0  0  0  0  0  0
   -3.1153    0.4667   -0.6984 N   0  0  0  0  0  0  0  0  0  0  0  0
   -1.3257   -0.1621   -2.1650 C   0  0  0  0  0  0  0  0  0  0  0  0
    0.5624   -0.7983   -3.4521 N   0  0  0  0  0  0  0  0  0  0  0  0
   -3.8580    0.8809    0.4193 C   0  0  0  0  0  0  0  0  0  0  0  0
   -2.2031   -0.4221   -3.1823 N   0  0  0  0  0  0  0  0  0  0  0  0
   -0.3062   -1.0619   -4.4584 C   0  0  0  0  0  0  0  0  0  0  0  0
   -3.3574    0.8983    1.7237 C   0  0  0  0  0  0  0  0  0  0  0  0
   -5.1987    1.2530    0.2333 C   0  0  0  0  0  0  0  0  0  0  0  0
   -1.6648   -0.8770   -4.3292 C   0  0  0  0  0  0  0  0  0  0  0  0
   -4.1554    1.2986    2.8033 C   0  0  0  0  0  0  0  0  0  0  0  0
   -6.0010    1.6546    1.3071 C   0  0  0  0  0  0  0  0  0  0  0  0
   -5.4868    1.6714    2.6047 C   0  0  0  0  0  0  0  0  0  0  0  0
   -6.3317    2.1308    3.7552 C   0  0  0  0  0  0  0  0  0  0  0  0
    3.6216   -0.4102   -1.4270 H   0  0  0  0  0  0  0  0  0  0  0  0
    2.8315   -1.4346   -0.2026 H   0  0  0  0  0  0  0  0  0  0  0  0
    4.7012   -2.4065   -1.0473 H   0  0  0  0  0  0  0  0  0  0  0  0
    4.1030   -2.8837    1.2013 H   0  0  0  0  0  0  0  0  0  0  0  0
    5.3692   -1.7116    1.7279 H   0  0  0  0  0  0  0  0  0  0  0  0
    5.8230   -3.1881    0.8122 H   0  0  0  0  0  0  0  0  0  0  0  0
    5.9878   -0.5371   -1.7559 H   0  0  0  0  0  0  0  0  0  0  0  0
    6.9278   -1.8141   -0.9265 H   0  0  0  0  0  0  0  0  0  0  0  0
    6.4994   -0.3119   -0.0414 H   0  0  0  0  0  0  0  0  0  0  0  0
    4.6651    0.9578    0.4458 H   0  0  0  0  0  0  0  0  0  0  0  0
    3.7939   -0.0184    1.6271 H   0  0  0  0  0  0  0  0  0  0  0  0
    2.5154    1.7742   -0.5198 H   0  0  0  0  0  0  0  0  0  0  0  0
    2.7164    2.1547    1.1778 H   0  0  0  0  0  0  0  0  0  0  0  0
    0.7577    1.1746    1.5318 H   0  0  0  0  0  0  0  0  0  0  0  0
   -3.6041    0.5587   -1.5868 H   0  0  0  0  0  0  0  0  0  0  0  0
    0.1301   -1.4286   -5.3816 H   0  0  0  0  0  0  0  0  0  0  0  0
   -2.3400    0.5881    1.9345 H   0  0  0  0  0  0  0  0  0  0  0  0
   -5.6394    1.2405   -0.7607 H   0  0  0  0  0  0  0  0  0  0  0  0
   -2.3544   -1.0887   -5.1390 H   0  0  0  0  0  0  0  0  0  0  0  0
   -3.7273    1.3072    3.8031 H   0  0  0  0  0  0  0  0  0  0  0  0
   -7.0314    1.9488    1.1202 H   0  0  0  0  0  0  0  0  0  0  0  0
   -7.3869    1.8927    3.5847 H   0  0  0  0  0  0  0  0  0  0  0  0
   -6.2296    3.2125    3.8858 H   0  0  0  0  0  0  0  0  0  0  0  0
   -6.0326    1.6323    4.6832 H   0  0  0  0  0  0  0  0  0  0  0  0
  1  2  1  0
  2  3  1  0
  2  4  1  0
  5  1  1  0
  6  5  1  0
  7  6  1  0
  8  7  1  0
  9  8  2  0
  8 10  1  0
 11  9  1  0
 10 12  2  0
 13 11  1  0
 14 11  2  0
 12 15  1  0
 14 12  1  0
 16 13  1  0
 17 14  1  0
 15 18  2  0
 19 16  2  0
 16 20  1  0
 21 17  2  0
 18 21  1  0
 22 19  1  0
 20 23  2  0
 24 22  2  0
 23 24  1  0
 25 24  1  0
  1 26  1  0
  1 27  1  0
  2 28  1  0
  3 29  1  0
  3 30  1  0
  3 31  1  0
  4 32  1  0
  4 33  1  0
  4 34  1  0
  5 35  1  0
  5 36  1  0
  6 37  1  0
  6 38  1  0
  7 39  1  0
 13 40  1  0
 18 41  1  0
 19 42  1  0
 20 43  1  0
 21 44  1  0
 22 45  1  0
 23 46  1  0
 25 47  1  0
 25 48  1  0
 25 49  1  0
M  CHG  1   2   1
M  END
>  <ScrubInfo>  (1) 
{"isomerGroup": 0, "isomerId": 0, "confId": 0, "nr_conformers:": 1, "nr_isomers:": 9}

$$$$
_i1
     RDKit          3D

 49 51  0  0  0  0  0  0  0  0999 V2000
   -0.7139   -0.8968   -0.1552 N   0  0  0  0  0  0  0  0  0  0  0  0
   -1.8175   -1.5989   -0.5811 C   0  0  0  0  0  0  0  0  0  0  0  0
   -2.9470   -0.9581   -1.0732 N   0  0  0  0  0  0  0  0  0  0  0  0
   -3.5403    0.2359   -0.6163 C   0  0  0  0  0  0  0  0  0  0  0  0
   -4.4753    0.8692   -1.4461 C   0  0  0  0  0  0  0  0  0  0  0  0
   -5.0818    2.0711   -1.0681 C   0  0  0  0  0  0  0  0  0  0  0  0
   -4.7574    2.6740    0.1498 C   0  0  0  0  0  0  0  0  0  0  0  0
   -5.4378    3.9405    0.5775 C   0  0  0  0  0  0  0  0  0  0  0  0
   -3.8374    2.0416    0.9908 C   0  0  0  0  0  0  0  0  0  0  0  0
   -3.2301    0.8403    0.6068 C   0  0  0  0  0  0  0  0  0  0  0  0
   -1.7608   -2.9536   -0.5727 C   0  0  0  0  0  0  0  0  0  0  0  0
   -2.7987   -3.7511   -1.0085 N   0  0  0  0  0  0  0  0  0  0  0  0
   -2.5922   -5.0217   -0.8996 C   0  0  0  0  0  0  0  0  0  0  0  0
   -1.3268   -5.5943   -0.3520 C   0  0  0  0  0  0  0  0  0  0  0  0
   -0.3391   -4.8661    0.0445 N   0  0  0  0  0  0  0  0  0  0  0  0
   -0.4575   -3.4990   -0.0331 C   0  0  0  0  0  0  0  0  0  0  0  0
    0.5663   -2.8173    0.3622 N   0  0  0  0  0  0  0  0  0  0  0  0
    0.4455   -1.4588    0.2777 C   0  0  0  0  0  0  0  0  0  0  0  0
    1.4442   -0.6974    0.5995 N   0  0  0  0  0  0  0  0  0  0  0  0
    2.6455   -1.3823    1.0795 C   0  0  0  0  0  0  0  0  0  0  0  0
    3.6914   -0.3220    1.4164 C   0  0  0  0  0  0  0  0  0  0  0  0
    4.0662    0.4809    0.1760 C   0  0  0  0  0  0  0  0  0  0  0  0
    5.1994    1.4478    0.4815 N   0  0  0  0  0  4  0  0  0  0  0  0
    5.8456    1.9394   -0.7854 C   0  0  0  0  0  0  0  0  0  0  0  0
    4.7724    2.5992    1.3510 C   0  0  0  0  0  0  0  0  0  0  0  0
   -0.7480    0.1040   -0.2797 H   0  0  0  0  0  0  0  0  0  0  0  0
   -3.6418   -1.6257   -1.4167 H   0  0  0  0  0  0  0  0  0  0  0  0
   -4.7360    0.4307   -2.4068 H   0  0  0  0  0  0  0  0  0  0  0  0
   -5.8095    2.5311   -1.7333 H   0  0  0  0  0  0  0  0  0  0  0  0
   -4.7833    4.5367    1.2220 H   0  0  0  0  0  0  0  0  0  0  0  0
   -5.6908    4.5598   -0.2895 H   0  0  0  0  0  0  0  0  0  0  0  0
   -6.3556    3.7057    1.1251 H   0  0  0  0  0  0  0  0  0  0  0  0
   -3.5948    2.4735    1.9594 H   0  0  0  0  0  0  0  0  0  0  0  0
   -2.5461    0.3678    1.3056 H   0  0  0  0  0  0  0  0  0  0  0  0
   -3.3476   -5.7599   -1.2105 H   0  0  0  0  0  0  0  0  0  0  0  0
   -1.2881   -6.6936   -0.3097 H   0  0  0  0  0  0  0  0  0  0  0  0
    2.4285   -1.9572    1.9879 H   0  0  0  0  0  0  0  0  0  0  0  0
    3.0475   -2.0601    0.3164 H   0  0  0  0  0  0  0  0  0  0  0  0
    4.5797   -0.8150    1.8287 H   0  0  0  0  0  0  0  0  0  0  0  0
    3.2916    0.3365    2.1953 H   0  0  0  0  0  0  0  0  0  0  0  0
    4.4297   -0.1931   -0.6080 H   0  0  0  0  0  0  0  0  0  0  0  0
    3.2333    1.0722   -0.2191 H   0  0  0  0  0  0  0  0  0  0  0  0
    5.9190    0.9240    0.9960 H   0  0  0  0  0  0  0  0  0  0  0  0
    6.2156    1.0717   -1.3380 H   0  0  0  0  0  0  0  0  0  0  0  0
    5.1002    2.4882   -1.3674 H   0  0  0  0  0  0  0  0  0  0  0  0
    6.6838    2.5857   -0.5114 H   0  0  0  0  0  0  0  0  0  0  0  0
    5.6366    3.2535    1.4955 H   0  0  0  0  0  0  0  0  0  0  0  0
    3.9600    3.1336    0.8515 H   0  0  0  0  0  0  0  0  0  0  0  0
    4.4533    2.2076    2.3186 H   0  0  0  0  0  0  0  0  0  0  0  0
  1  2  1  0
  2  3  1  0
  3  4  1  0
  4  5  2  0
  5  6  1  0
  6  7  2  0
  7  8  1  0
  7  9  1  0
  9 10  2  0
  2 11  2  0
 11 12  1  0
 12 13  2  0
 13 14  1  0
 14 15  2  0
 15 16  1  0
 16 17  2  0
 17 18  1  0
 18 19  2  3
 19 20  1  0
 20 21  1  0
 21 22  1  0
 22 23  1  0
 23 24  1  0
 23 25  1  0
 18  1  1  0
 10  4  1  0
 16 11  1  0
  1 26  1  0
  3 27  1  0
  5 28  1  0
  6 29  1  0
  8 30  1  0
  8 31  1  0
  8 32  1  0
  9 33  1  0
 10 34  1  0
 13 35  1  0
 14 36  1  0
 20 37  1  0
 20 38  1  0
 21 39  1  0
 21 40  1  0
 22 41  1  0
 22 42  1  0
 23 43  1  0
 24 44  1  0
 24 45  1  0
 24 46  1  0
 25 47  1  0
 25 48  1  0
 25 49  1  0
M  CHG  1  23   1
M  END
>  <ScrubInfo>  (2) 
{"isomerGroup": 0, "isomerId": 1, "confId": 0, "nr_conformers:": 1, "nr_isomers:": 9}

$$$$
_i2
     RDKit          3D

 49 51  0  0  0  0  0  0  0  0999 V2000
   -0.9323   -0.1266    0.0437 N   0  0  0  0  0  0  0  0  0  0  0  0
    0.3260    0.0901   -0.4307 C   0  0  0  0  0  0  0  0  0  0  0  0
    0.4272    1.1544   -1.2789 N   0  0  0  0  0  0  0  0  0  0  0  0
    1.5954    1.3789   -2.1199 C   0  0  0  0  0  0  0  0  0  0  0  0
    2.7312    2.0532   -1.3415 C   0  0  0  0  0  0  0  0  0  0  0  0
    4.0133    1.2200   -1.2873 C   0  0  0  0  0  0  0  0  0  0  0  0
    3.9554    0.1304   -0.2539 N   0  0  0  0  0  4  0  0  0  0  0  0
    4.1797    0.6095    1.1504 C   0  0  0  0  0  0  0  0  0  0  0  0
    4.8457   -1.0310   -0.5830 C   0  0  0  0  0  0  0  0  0  0  0  0
    1.3531   -0.6370   -0.0949 N   0  0  0  0  0  0  0  0  0  0  0  0
    1.0823   -1.7084    0.7905 C   0  0  0  0  0  0  0  0  0  0  0  0
    2.1898   -2.4197    1.1153 N   0  0  0  0  0  0  0  0  0  0  0  0
    1.9681   -3.4623    1.9608 C   0  0  0  0  0  0  0  0  0  0  0  0
    0.7132   -3.7738    2.4724 C   0  0  0  0  0  0  0  0  0  0  0  0
   -0.3907   -3.0584    2.1681 N   0  0  0  0  0  0  0  0  0  0  0  0
   -0.1772   -2.0254    1.3169 C   0  0  0  0  0  0  0  0  0  0  0  0
   -1.3041   -1.1356    0.9126 C   0  0  0  0  0  0  0  0  0  0  0  0
   -2.4960   -1.3513    1.3855 N   0  0  0  0  0  0  0  0  0  0  0  0
   -3.5487   -0.5132    0.9999 C   0  0  0  0  0  0  0  0  0  0  0  0
   -3.8545    0.6239    1.7493 C   0  0  0  0  0  0  0  0  0  0  0  0
   -4.8901    1.4742    1.3539 C   0  0  0  0  0  0  0  0  0  0  0  0
   -5.6479    1.1830    0.2133 C   0  0  0  0  0  0  0  0  0  0  0  0
   -6.7508    2.1031   -0.2219 C   0  0  0  0  0  0  0  0  0  0  0  0
   -5.3427    0.0389   -0.5336 C   0  0  0  0  0  0  0  0  0  0  0  0
   -4.3062   -0.8084   -0.1348 C   0  0  0  0  0  0  0  0  0  0  0  0
   -1.6612    0.5317   -0.1947 H   0  0  0  0  0  0  0  0  0  0  0  0
   -0.4392    1.4239   -1.7388 H   0  0  0  0  0  0  0  0  0  0  0  0
    1.2900    2.0479   -2.9335 H   0  0  0  0  0  0  0  0  0  0  0  0
    1.9091    0.4421   -2.5948 H   0  0  0  0  0  0  0  0  0  0  0  0
    2.4117    2.3642   -0.3412 H   0  0  0  0  0  0  0  0  0  0  0  0
    2.9833    2.9791   -1.8756 H   0  0  0  0  0  0  0  0  0  0  0  0
    4.8762    1.8485   -1.0395 H   0  0  0  0  0  0  0  0  0  0  0  0
    4.2047    0.7539   -2.2606 H   0  0  0  0  0  0  0  0  0  0  0  0
    2.9902   -0.2682   -0.2491 H   0  0  0  0  0  0  0  0  0  0  0  0
    5.1891    1.0239    1.2194 H   0  0  0  0  0  0  0  0  0  0  0  0
    4.0643   -0.2405    1.8281 H   0  0  0  0  0  0  0  0  0  0  0  0
    3.4302    1.3678    1.3858 H   0  0  0  0  0  0  0  0  0  0  0  0
    4.5228   -1.4443   -1.5423 H   0  0  0  0  0  0  0  0  0  0  0  0
    4.7412   -1.7865    0.1994 H   0  0  0  0  0  0  0  0  0  0  0  0
    5.8767   -0.6712   -0.6386 H   0  0  0  0  0  0  0  0  0  0  0  0
    2.8378   -4.0561    2.2244 H   0  0  0  0  0  0  0  0  0  0  0  0
    0.5649   -4.6121    3.1460 H   0  0  0  0  0  0  0  0  0  0  0  0
   -3.2907    0.8417    2.6524 H   0  0  0  0  0  0  0  0  0  0  0  0
   -5.1147    2.3541    1.9533 H   0  0  0  0  0  0  0  0  0  0  0  0
   -6.3548    2.8672   -0.8977 H   0  0  0  0  0  0  0  0  0  0  0  0
   -7.2110    2.5969    0.6405 H   0  0  0  0  0  0  0  0  0  0  0  0
   -7.5414    1.5486   -0.7382 H   0  0  0  0  0  0  0  0  0  0  0  0
   -5.9236   -0.2108   -1.4191 H   0  0  0  0  0  0  0  0  0  0  0  0
   -4.0952   -1.7101   -0.7036 H   0  0  0  0  0  0  0  0  0  0  0  0
  1  2  1  0
  2  3  1  0
  3  4  1  0
  4  5  1  0
  5  6  1  0
  6  7  1  0
  7  8  1  0
  7  9  1  0
  2 10  2  0
 10 11  1  0
 11 12  2  0
 12 13  1  0
 13 14  2  0
 14 15  1  0
 15 16  2  0
 16 17  1  0
 17 18  2  3
 18 19  1  0
 19 20  2  0
 20 21  1  0
 21 22  2  0
 22 23  1  0
 22 24  1  0
 24 25  2  0
 17  1  1  0
 25 19  1  0
 16 11  1  0
  1 26  1  0
  3 27  1  0
  4 28  1  0
  4 29  1  0
  5 30  1  0
  5 31  1  0
  6 32  1  0
  6 33  1  0
  7 34  1  0
  8 35  1  0
  8 36  1  0
  8 37  1  0
  9 38  1  0
  9 39  1  0
  9 40  1  0
 13 41  1  0
 14 42  1  0
 20 43  1  0
 21 44  1  0
 23 45  1  0
 23 46  1  0
 23 47  1  0
 24 48  1  0
 25 49  1  0
M  CHG  1   7   1
M  END
>  <ScrubInfo>  (3) 
{"isomerGroup": 0, "isomerId": 2, "confId": 0, "nr_conformers:": 1, "nr_isomers:": 9}

$$$$
_i3
     RDKit          3D

 49 51  0  0  0  0  0  0  0  0999 V2000
   -0.1653    3.2263    0.5814 N   0  0  0  0  0  0  0  0  0  0  0  0
   -0.3412    1.8865    0.7084 C   0  0  0  0  0  0  0  0  0  0  0  0
   -1.1102    1.2754    1.5351 N   0  0  0  0  0  0  0  0  0  0  0  0
   -1.9551    2.0187    2.4561 C   0  0  0  0  0  0  0  0  0  0  0  0
   -2.6602    0.9966    3.3580 C   0  0  0  0  0  0  0  0  0  0  0  0
   -3.3830   -0.1128    2.5817 C   0  0  0  0  0  0  0  0  0  0  0  0
   -2.4117   -0.9591    1.7899 N   0  0  0  0  0  4  0  0  0  0  0  0
   -1.6697   -1.9713    2.6011 C   0  0  0  0  0  0  0  0  0  0  0  0
   -3.0072   -1.5477    0.5514 C   0  0  0  0  0  0  0  0  0  0  0  0
    0.3004    0.9837   -0.0987 N   0  0  0  0  0  0  0  0  0  0  0  0
    1.1097    1.4008   -1.0349 C   0  0  0  0  0  0  0  0  0  0  0  0
    1.7785    0.5652   -1.9104 N   0  0  0  0  0  0  0  0  0  0  0  0
    1.9548   -0.8281   -1.8752 C   0  0  0  0  0  0  0  0  0  0  0  0
    2.3996   -1.4722   -3.0399 C   0  0  0  0  0  0  0  0  0  0  0  0
    2.5588   -2.8612   -3.0898 C   0  0  0  0  0  0  0  0  0  0  0  0
    2.2794   -3.6450   -1.9687 C   0  0  0  0  0  0  0  0  0  0  0  0
    2.4295   -5.1362   -2.0258 C   0  0  0  0  0  0  0  0  0  0  0  0
    1.8099   -3.0186   -0.8118 C   0  0  0  0  0  0  0  0  0  0  0  0
    1.6470   -1.6279   -0.7705 C   0  0  0  0  0  0  0  0  0  0  0  0
    1.3482    2.8614   -1.2460 C   0  0  0  0  0  0  0  0  0  0  0  0
    2.1886    3.2425   -2.2450 N   0  0  0  0  0  0  0  0  0  0  0  0
    2.3371    4.5835   -2.3463 C   0  0  0  0  0  0  0  0  0  0  0  0
    1.6799    5.4729   -1.5032 C   0  0  0  0  0  0  0  0  0  0  0  0
    0.8383    5.0685   -0.5146 N   0  0  0  0  0  0  0  0  0  0  0  0
    0.6792    3.7334   -0.3938 C   0  0  0  0  0  0  0  0  0  0  0  0
   -0.6158    3.9086    1.1669 H   0  0  0  0  0  0  0  0  0  0  0  0
   -2.7043    2.5971    1.9035 H   0  0  0  0  0  0  0  0  0  0  0  0
   -1.3671    2.7034    3.0773 H   0  0  0  0  0  0  0  0  0  0  0  0
   -3.3912    1.5272    3.9795 H   0  0  0  0  0  0  0  0  0  0  0  0
   -1.9300    0.5559    4.0463 H   0  0  0  0  0  0  0  0  0  0  0  0
   -3.9334   -0.7821    3.2514 H   0  0  0  0  0  0  0  0  0  0  0  0
   -4.0894    0.3340    1.8731 H   0  0  0  0  0  0  0  0  0  0  0  0
   -1.6890   -0.2813    1.4518 H   0  0  0  0  0  0  0  0  0  0  0  0
   -1.1576   -1.4612    3.4195 H   0  0  0  0  0  0  0  0  0  0  0  0
   -0.9317   -2.4538    1.9543 H   0  0  0  0  0  0  0  0  0  0  0  0
   -2.3863   -2.7023    2.9848 H   0  0  0  0  0  0  0  0  0  0  0  0
   -2.2155   -2.0618   -0.0004 H   0  0  0  0  0  0  0  0  0  0  0  0
   -3.4086   -0.7328   -0.0569 H   0  0  0  0  0  0  0  0  0  0  0  0
   -3.7972   -2.2442    0.8442 H   0  0  0  0  0  0  0  0  0  0  0  0
    2.3338    1.0414   -2.6205 H   0  0  0  0  0  0  0  0  0  0  0  0
    2.6244   -0.8952   -3.9344 H   0  0  0  0  0  0  0  0  0  0  0  0
    2.9059   -3.3234   -4.0119 H   0  0  0  0  0  0  0  0  0  0  0  0
    2.6765   -5.5420   -1.0391 H   0  0  0  0  0  0  0  0  0  0  0  0
    1.4976   -5.5930   -2.3729 H   0  0  0  0  0  0  0  0  0  0  0  0
    3.2390   -5.4216   -2.7059 H   0  0  0  0  0  0  0  0  0  0  0  0
    1.5804   -3.6079    0.0725 H   0  0  0  0  0  0  0  0  0  0  0  0
    1.3072   -1.1820    0.1581 H   0  0  0  0  0  0  0  0  0  0  0  0
    3.0032    4.9355   -3.1279 H   0  0  0  0  0  0  0  0  0  0  0  0
    1.8138    6.5460   -1.6020 H   0  0  0  0  0  0  0  0  0  0  0  0
  1  2  1  0
  2  3  2  3
  3  4  1  0
  4  5  1  0
  5  6  1  0
  6  7  1  0
  7  8  1  0
  7  9  1  0
  2 10  1  0
 10 11  2  0
 11 12  1  0
 12 13  1  0
 13 14  2  0
 14 15  1  0
 15 16  2  0
 16 17  1  0
 16 18  1  0
 18 19  2  0
 11 20  1  0
 20 21  2  0
 21 22  1  0
 22 23  2  0
 23 24  1  0
 24 25  2  0
 25  1  1  0
 19 13  1  0
 25 20  1  0
  1 26  1  0
  4 27  1  0
  4 28  1  0
  5 29  1  0
  5 30  1  0
  6 31  1  0
  6 32  1  0
  7 33  1  0
  8 34  1  0
  8 35  1  0
  8 36  1  0
  9 37  1  0
  9 38  1  0
  9 39  1  0
 12 40  1  0
 14 41  1  0
 15 42  1  0
 17 43  1  0
 17 44  1  0
 17 45  1  0
 18 46  1  0
 19 47  1  0
 22 48  1  0
 23 49  1  0
M  CHG  1   7   1
M  END
>  <ScrubInfo>  (4) 
{"isomerGroup": 0, "isomerId": 3, "confId": 0, "nr_conformers:": 1, "nr_isomers:": 9}

$$$$
_i4
     RDKit          3D

 49 51  0  0  0  0  0  0  0  0999 V2000
   -0.2783    3.4456    0.5066 N   0  0  0  0  0  0  0  0  0  0  0  0
   -1.1952    2.5856    0.0023 C   0  0  0  0  0  0  0  0  0  0  0  0
   -2.4240    3.1499   -0.1922 N   0  0  0  0  0  0  0  0  0  0  0  0
   -3.4784    2.7058   -1.1015 C   0  0  0  0  0  0  0  0  0  0  0  0
   -3.4398    1.2446   -1.5512 C   0  0  0  0  0  0  0  0  0  0  0  0
   -3.6658    0.2498   -0.4096 C   0  0  0  0  0  0  0  0  0  0  0  0
   -2.6970   -0.9083   -0.4862 N   0  0  0  0  0  4  0  0  0  0  0  0
   -2.8284   -1.7760   -1.6938 C   0  0  0  0  0  0  0  0  0  0  0  0
   -2.6666   -1.7123    0.7776 C   0  0  0  0  0  0  0  0  0  0  0  0
   -0.9643    1.3330   -0.2310 N   0  0  0  0  0  0  0  0  0  0  0  0
    0.2814    0.7990    0.0360 C   0  0  0  0  0  0  0  0  0  0  0  0
    0.2547   -0.4917   -0.1329 N   0  0  0  0  0  0  0  0  0  0  0  0
    1.3885   -1.2787    0.0937 C   0  0  0  0  0  0  0  0  0  0  0  0
    1.6483   -1.7974    1.3644 C   0  0  0  0  0  0  0  0  0  0  0  0
    2.7475   -2.6339    1.5762 C   0  0  0  0  0  0  0  0  0  0  0  0
    3.5985   -2.9665    0.5159 C   0  0  0  0  0  0  0  0  0  0  0  0
    4.7622   -3.8882    0.7351 C   0  0  0  0  0  0  0  0  0  0  0  0
    3.3160   -2.4737   -0.7633 C   0  0  0  0  0  0  0  0  0  0  0  0
    2.2162   -1.6374   -0.9717 C   0  0  0  0  0  0  0  0  0  0  0  0
    1.3915    1.7005    0.4650 C   0  0  0  0  0  0  0  0  0  0  0  0
    2.6545    1.2343    0.6220 N   0  0  0  0  0  0  0  0  0  0  0  0
    3.5594    2.1559    1.0194 C   0  0  0  0  0  0  0  0  0  0  0  0
    3.2162    3.4793    1.2485 C   0  0  0  0  0  0  0  0  0  0  0  0
    1.9514    3.9438    1.0897 N   0  0  0  0  0  0  0  0  0  0  0  0
    1.0366    3.0314    0.6899 C   0  0  0  0  0  0  0  0  0  0  0  0
   -0.4301    4.4305    0.6559 H   0  0  0  0  0  0  0  0  0  0  0  0
   -2.4718    4.1504   -0.0237 H   0  0  0  0  0  0  0  0  0  0  0  0
   -4.4445    2.9143   -0.6275 H   0  0  0  0  0  0  0  0  0  0  0  0
   -3.4294    3.3380   -1.9961 H   0  0  0  0  0  0  0  0  0  0  0  0
   -2.5111    1.0576   -2.1013 H   0  0  0  0  0  0  0  0  0  0  0  0
   -4.2424    1.0989   -2.2862 H   0  0  0  0  0  0  0  0  0  0  0  0
   -4.6757   -0.1739   -0.4480 H   0  0  0  0  0  0  0  0  0  0  0  0
   -3.5278    0.7160    0.5717 H   0  0  0  0  0  0  0  0  0  0  0  0
   -1.7472   -0.4718   -0.5276 H   0  0  0  0  0  0  0  0  0  0  0  0
   -2.0366   -2.5297   -1.6637 H   0  0  0  0  0  0  0  0  0  0  0  0
   -3.8144   -2.2479   -1.6761 H   0  0  0  0  0  0  0  0  0  0  0  0
   -2.7091   -1.1620   -2.5888 H   0  0  0  0  0  0  0  0  0  0  0  0
   -3.6479   -2.1735    0.9180 H   0  0  0  0  0  0  0  0  0  0  0  0
   -2.4284   -1.0410    1.6071 H   0  0  0  0  0  0  0  0  0  0  0  0
   -1.8881   -2.4744    0.6852 H   0  0  0  0  0  0  0  0  0  0  0  0
    1.0000   -1.5470    2.1981 H   0  0  0  0  0  0  0  0  0  0  0  0
    2.9376   -3.0231    2.5742 H   0  0  0  0  0  0  0  0  0  0  0  0
    5.5770   -3.6605    0.0398 H   0  0  0  0  0  0  0  0  0  0  0  0
    4.4499   -4.9265    0.5871 H   0  0  0  0  0  0  0  0  0  0  0  0
    5.1610   -3.7791    1.7491 H   0  0  0  0  0  0  0  0  0  0  0  0
    3.9520   -2.7368   -1.6058 H   0  0  0  0  0  0  0  0  0  0  0  0
    2.0104   -1.2617   -1.9695 H   0  0  0  0  0  0  0  0  0  0  0  0
    4.5766    1.8012    1.1509 H   0  0  0  0  0  0  0  0  0  0  0  0
    3.9548    4.2077    1.5680 H   0  0  0  0  0  0  0  0  0  0  0  0
  1  2  1  0
  2  3  1  0
  3  4  1  0
  4  5  1  0
  5  6  1  0
  6  7  1  0
  7  8  1  0
  7  9  1  0
  2 10  2  0
 10 11  1  0
 11 12  2  3
 12 13  1  0
 13 14  2  0
 14 15  1  0
 15 16  2  0
 16 17  1  0
 16 18  1  0
 18 19  2  0
 11 20  1  0
 20 21  2  0
 21 22  1  0
 22 23  2  0
 23 24  1  0
 24 25  2  0
 25  1  1  0
 19 13  1  0
 25 20  1  0
  1 26  1  0
  3 27  1  0
  4 28  1  0
  4 29  1  0
  5 30  1  0
  5 31  1  0
  6 32  1  0
  6 33  1  0
  7 34  1  0
  8 35  1  0
  8 36  1  0
  8 37  1  0
  9 38  1  0
  9 39  1  0
  9 40  1  0
 14 41  1  0
 15 42  1  0
 17 43  1  0
 17 44  1  0
 17 45  1  0
 18 46  1  0
 19 47  1  0
 22 48  1  0
 23 49  1  0
M  CHG  1   7   1
M  END
>  <ScrubInfo>  (5) 
{"isomerGroup": 0, "isomerId": 4, "confId": 0, "nr_conformers:": 1, "nr_isomers:": 9}

$$$$
_i5
     RDKit          3D

 49 51  0  0  0  0  0  0  0  0999 V2000
    0.0990    5.0416   -0.6761 N   0  0  0  0  0  0  0  0  0  0  0  0
   -0.9772    5.7882   -1.0746 C   0  0  0  0  0  0  0  0  0  0  0  0
   -2.1887    5.2283   -1.2298 C   0  0  0  0  0  0  0  0  0  0  0  0
   -2.4520    3.8891   -1.0080 N   0  0  0  0  0  0  0  0  0  0  0  0
   -1.4408    3.1528   -0.6186 C   0  0  0  0  0  0  0  0  0  0  0  0
   -1.6550    1.6831   -0.3597 C   0  0  0  0  0  0  0  0  0  0  0  0
   -2.9375    1.2307   -0.5828 N   0  0  0  0  0  0  0  0  0  0  0  0
   -3.5145   -0.0290   -0.3622 C   0  0  0  0  0  0  0  0  0  0  0  0
   -2.8454   -1.1091    0.2184 C   0  0  0  0  0  0  0  0  0  0  0  0
   -3.4759   -2.3487    0.3896 C   0  0  0  0  0  0  0  0  0  0  0  0
   -4.7985   -2.5374   -0.0171 C   0  0  0  0  0  0  0  0  0  0  0  0
   -5.4635   -3.8727    0.1364 C   0  0  0  0  0  0  0  0  0  0  0  0
   -5.4710   -1.4747   -0.6220 C   0  0  0  0  0  0  0  0  0  0  0  0
   -4.8361   -0.2391   -0.7885 C   0  0  0  0  0  0  0  0  0  0  0  0
   -0.6313    0.9940    0.0293 N   0  0  0  0  0  0  0  0  0  0  0  0
    0.5815    1.6028    0.1982 C   0  0  0  0  0  0  0  0  0  0  0  0
    1.5847    0.9042    0.6045 N   0  0  0  0  0  0  0  0  0  0  0  0
    1.3612   -0.5094    0.8817 C   0  0  0  0  0  0  0  0  0  0  0  0
    2.6663   -1.0914    1.4235 C   0  0  0  0  0  0  0  0  0  0  0  0
    3.7895   -0.9715    0.3979 C   0  0  0  0  0  0  0  0  0  0  0  0
    5.1164   -1.4074    0.9985 N   0  0  0  0  0  4  0  0  0  0  0  0
    5.2051   -2.8828    1.2640 C   0  0  0  0  0  0  0  0  0  0  0  0
    6.2697   -0.9352    0.1541 C   0  0  0  0  0  0  0  0  0  0  0  0
    0.8934    2.9143   -0.0275 N   0  0  0  0  0  0  0  0  0  0  0  0
   -0.0493    3.7031   -0.4171 C   0  0  0  0  0  0  0  0  0  0  0  0
    0.9996    5.4841   -0.5454 H   0  0  0  0  0  0  0  0  0  0  0  0
   -0.7891    6.8423   -1.2518 H   0  0  0  0  0  0  0  0  0  0  0  0
   -3.0347    5.8349   -1.5464 H   0  0  0  0  0  0  0  0  0  0  0  0
   -3.5889    1.9519   -0.8901 H   0  0  0  0  0  0  0  0  0  0  0  0
   -1.8220   -1.0145    0.5625 H   0  0  0  0  0  0  0  0  0  0  0  0
   -2.9232   -3.1657    0.8477 H   0  0  0  0  0  0  0  0  0  0  0  0
   -6.5435   -3.7576    0.2759 H   0  0  0  0  0  0  0  0  0  0  0  0
   -5.0778   -4.4025    1.0138 H   0  0  0  0  0  0  0  0  0  0  0  0
   -5.2845   -4.4844   -0.7532 H   0  0  0  0  0  0  0  0  0  0  0  0
   -6.4948   -1.5977   -0.9692 H   0  0  0  0  0  0  0  0  0  0  0  0
   -5.3950    0.5638   -1.2647 H   0  0  0  0  0  0  0  0  0  0  0  0
    0.5815   -0.6434    1.6412 H   0  0  0  0  0  0  0  0  0  0  0  0
    1.0692   -1.0483   -0.0277 H   0  0  0  0  0  0  0  0  0  0  0  0
    2.4934   -2.1410    1.6837 H   0  0  0  0  0  0  0  0  0  0  0  0
    2.9453   -0.5671    2.3459 H   0  0  0  0  0  0  0  0  0  0  0  0
    3.9238    0.0691    0.0851 H   0  0  0  0  0  0  0  0  0  0  0  0
    3.6076   -1.5897   -0.4881 H   0  0  0  0  0  0  0  0  0  0  0  0
    5.2033   -0.9219    1.9015 H   0  0  0  0  0  0  0  0  0  0  0  0
    5.0474   -3.4177    0.3238 H   0  0  0  0  0  0  0  0  0  0  0  0
    6.1973   -3.0963    1.6711 H   0  0  0  0  0  0  0  0  0  0  0  0
    4.4484   -3.1511    2.0036 H   0  0  0  0  0  0  0  0  0  0  0  0
    7.1981   -1.2176    0.6577 H   0  0  0  0  0  0  0  0  0  0  0  0
    6.1973   -1.4072   -0.8294 H   0  0  0  0  0  0  0  0  0  0  0  0
    6.2117    0.1535    0.0740 H   0  0  0  0  0  0  0  0  0  0  0  0
  1  2  1  0
  2  3  2  0
  3  4  1  0
  4  5  2  0
  5  6  1  0
  6  7  1  0
  7  8  1  0
  8  9  2  0
  9 10  1  0
 10 11  2  0
 11 12  1  0
 11 13  1  0
 13 14  2  0
  6 15  2  0
 15 16  1  0
 16 17  2  3
 17 18  1  0
 18 19  1  0
 19 20  1  0
 20 21  1  0
 21 22  1  0
 21 23  1  0
 16 24  1  0
 24 25  2  0
 25  1  1  0
 25  5  1  0
 14  8  1  0
  1 26  1  0
  2 27  1  0
  3 28  1  0
  7 29  1  0
  9 30  1  0
 10 31  1  0
 12 32  1  0
 12 33  1  0
 12 34  1  0
 13 35  1  0
 14 36  1  0
 18 37  1  0
 18 38  1  0
 19 39  1  0
 19 40  1  0
 20 41  1  0
 20 42  1  0
 21 43  1  0
 22 44  1  0
 22 45  1  0
 22 46  1  0
 23 47  1  0
 23 48  1  0
 23 49  1  0
M  CHG  1  21   1
M  END
>  <ScrubInfo>  (6) 
{"isomerGroup": 0, "isomerId": 5, "confId": 0, "nr_conformers:": 1, "nr_isomers:": 9}

$$$$
_i6
     RDKit          3D

 49 51  0  0  0  0  0  0  0  0999 V2000
   -2.4993    1.0025   -3.5072 N   0  0  0  0  0  0  0  0  0  0  0  0
   -3.6456    0.3309   -3.1737 C   0  0  0  0  0  0  0  0  0  0  0  0
   -3.6985   -0.4413   -2.0762 C   0  0  0  0  0  0  0  0  0  0  0  0
   -2.6417   -0.6061   -1.2031 N   0  0  0  0  0  0  0  0  0  0  0  0
   -1.5302    0.0145   -1.4915 C   0  0  0  0  0  0  0  0  0  0  0  0
   -0.2961   -0.0165   -0.6399 C   0  0  0  0  0  0  0  0  0  0  0  0
   -0.1791   -0.3793    0.6014 N   0  0  0  0  0  0  0  0  0  0  0  0
   -1.2882   -0.8105    1.3360 C   0  0  0  0  0  0  0  0  0  0  0  0
   -2.1036    0.1116    1.9969 C   0  0  0  0  0  0  0  0  0  0  0  0
   -3.1784   -0.3252    2.7760 C   0  0  0  0  0  0  0  0  0  0  0  0
   -3.4347   -1.6929    2.9254 C   0  0  0  0  0  0  0  0  0  0  0  0
   -4.6115   -2.1628    3.7292 C   0  0  0  0  0  0  0  0  0  0  0  0
   -2.6120   -2.6149    2.2683 C   0  0  0  0  0  0  0  0  0  0  0  0
   -1.5381   -2.1753    1.4899 C   0  0  0  0  0  0  0  0  0  0  0  0
    0.8937    0.4223   -1.1607 N   0  0  0  0  0  0  0  0  0  0  0  0
    0.8928    1.0492   -2.2964 C   0  0  0  0  0  0  0  0  0  0  0  0
    2.0771    1.5138   -2.7913 N   0  0  0  0  0  0  0  0  0  0  0  0
    3.3503    0.8976   -2.4759 C   0  0  0  0  0  0  0  0  0  0  0  0
    4.1419    1.7122   -1.4554 C   0  0  0  0  0  0  0  0  0  0  0  0
    3.4622    2.0211   -0.1202 C   0  0  0  0  0  0  0  0  0  0  0  0
    2.9678    0.8174    0.6366 N   0  0  0  0  0  4  0  0  0  0  0  0
    3.9850   -0.2396    0.9197 C   0  0  0  0  0  0  0  0  0  0  0  0
    2.2499    1.2236    1.8997 C   0  0  0  0  0  0  0  0  0  0  0  0
   -0.2017    1.3096   -3.0638 N   0  0  0  0  0  0  0  0  0  0  0  0
   -1.3650    0.8343   -2.7543 C   0  0  0  0  0  0  0  0  0  0  0  0
   -2.4502    1.4900   -4.3931 H   0  0  0  0  0  0  0  0  0  0  0  0
   -4.4875    0.4542   -3.8474 H   0  0  0  0  0  0  0  0  0  0  0  0
   -4.6123   -0.9741   -1.8215 H   0  0  0  0  0  0  0  0  0  0  0  0
   -1.9139    1.1761    1.9027 H   0  0  0  0  0  0  0  0  0  0  0  0
   -3.8155    0.4080    3.2659 H   0  0  0  0  0  0  0  0  0  0  0  0
   -5.4950   -2.2405    3.0881 H   0  0  0  0  0  0  0  0  0  0  0  0
   -4.8276   -1.4684    4.5479 H   0  0  0  0  0  0  0  0  0  0  0  0
   -4.4120   -3.1416    4.1781 H   0  0  0  0  0  0  0  0  0  0  0  0
   -2.8030   -3.6822    2.3576 H   0  0  0  0  0  0  0  0  0  0  0  0
   -0.9039   -2.9040    0.9942 H   0  0  0  0  0  0  0  0  0  0  0  0
    1.9811    1.8277   -3.7550 H   0  0  0  0  0  0  0  0  0  0  0  0
    3.2214   -0.1362   -2.1359 H   0  0  0  0  0  0  0  0  0  0  0  0
    3.9396    0.8352   -3.3987 H   0  0  0  0  0  0  0  0  0  0  0  0
    4.4053    2.6745   -1.9144 H   0  0  0  0  0  0  0  0  0  0  0  0
    5.0964    1.2048   -1.2698 H   0  0  0  0  0  0  0  0  0  0  0  0
    4.1659    2.5434    0.5387 H   0  0  0  0  0  0  0  0  0  0  0  0
    2.5978    2.6762   -0.2776 H   0  0  0  0  0  0  0  0  0  0  0  0
    2.2128    0.3925    0.0564 H   0  0  0  0  0  0  0  0  0  0  0  0
    4.7950    0.2041    1.5045 H   0  0  0  0  0  0  0  0  0  0  0  0
    3.4994   -1.0463    1.4758 H   0  0  0  0  0  0  0  0  0  0  0  0
    4.3569   -0.6331   -0.0282 H   0  0  0  0  0  0  0  0  0  0  0  0
    1.4381    1.9040    1.6289 H   0  0  0  0  0  0  0  0  0  0  0  0
    1.8463    0.3251    2.3733 H   0  0  0  0  0  0  0  0  0  0  0  0
    2.9678    1.7180    2.5600 H   0  0  0  0  0  0  0  0  0  0  0  0
  1  2  1  0
  2  3  2  0
  3  4  1  0
  4  5  2  0
  5  6  1  0
  6  7  2  3
  7  8  1  0
  8  9  2  0
  9 10  1  0
 10 11  2  0
 11 12  1  0
 11 13  1  0
 13 14  2  0
  6 15  1  0
 15 16  2  0
 16 17  1  0
 17 18  1  0
 18 19  1  0
 19 20  1  0
 20 21  1  0
 21 22  1  0
 21 23  1  0
 16 24  1  0
 24 25  2  0
 25  1  1  0
 25  5  1  0
 14  8  1  0
  1 26  1  0
  2 27  1  0
  3 28  1  0
  9 29  1  0
 10 30  1  0
 12 31  1  0
 12 32  1  0
 12 33  1  0
 13 34  1  0
 14 35  1  0
 17 36  1  0
 18 37  1  0
 18 38  1  0
 19 39  1  0
 19 40  1  0
 20 41  1  0
 20 42  1  0
 21 43  1  0
 22 44  1  0
 22 45  1  0
 22 46  1  0
 23 47  1  0
 23 48  1  0
 23 49  1  0
M  CHG  1  21   1
M  END
>  <ScrubInfo>  (7) 
{"isomerGroup": 0, "isomerId": 6, "confId": 0, "nr_conformers:": 1, "nr_isomers:": 9}

$$$$
_i7
     RDKit          3D

 49 51  0  0  0  0  0  0  0  0999 V2000
   -0.2034    2.1579    0.7855 N   0  0  0  0  0  0  0  0  0  0  0  0
   -0.9289    1.0035    0.8705 C   0  0  0  0  0  0  0  0  0  0  0  0
   -2.1240    0.8439    1.3519 N   0  0  0  0  0  0  0  0  0  0  0  0
   -2.7754    2.0406    1.9052 C   0  0  0  0  0  0  0  0  0  0  0  0
   -4.0635    1.6228    2.6207 C   0  0  0  0  0  0  0  0  0  0  0  0
   -5.0700    0.9275    1.7031 C   0  0  0  0  0  0  0  0  0  0  0  0
   -4.5154   -0.3779    1.1834 N   0  0  0  0  0  4  0  0  0  0  0  0
   -4.6144   -1.5078    2.1634 C   0  0  0  0  0  0  0  0  0  0  0  0
   -5.0647   -0.7485   -0.1591 C   0  0  0  0  0  0  0  0  0  0  0  0
   -0.2745   -0.0821    0.3627 N   0  0  0  0  0  0  0  0  0  0  0  0
    0.9780   -0.1781   -0.2030 C   0  0  0  0  0  0  0  0  0  0  0  0
    1.3258   -1.3766   -0.5975 N   0  0  0  0  0  0  0  0  0  0  0  0
    2.5704   -1.6276   -1.1857 C   0  0  0  0  0  0  0  0  0  0  0  0
    2.7170   -1.5834   -2.5736 C   0  0  0  0  0  0  0  0  0  0  0  0
    3.9463   -1.8842   -3.1670 C   0  0  0  0  0  0  0  0  0  0  0  0
    5.0455   -2.2401   -2.3768 C   0  0  0  0  0  0  0  0  0  0  0  0
    6.3558   -2.5975   -3.0138 C   0  0  0  0  0  0  0  0  0  0  0  0
    4.8868   -2.3205   -0.9884 C   0  0  0  0  0  0  0  0  0  0  0  0
    3.6559   -2.0189   -0.3991 C   0  0  0  0  0  0  0  0  0  0  0  0
    1.7404    1.1089   -0.2749 C   0  0  0  0  0  0  0  0  0  0  0  0
    2.9816    1.1590   -0.8101 N   0  0  0  0  0  0  0  0  0  0  0  0
    3.5587    2.3793   -0.8121 C   0  0  0  0  0  0  0  0  0  0  0  0
    2.9207    3.4997   -0.3045 C   0  0  0  0  0  0  0  0  0  0  0  0
    1.6738    3.4540    0.2298 N   0  0  0  0  0  0  0  0  0  0  0  0
    1.0827    2.2362    0.2422 C   0  0  0  0  0  0  0  0  0  0  0  0
   -0.5355    3.0499    1.1195 H   0  0  0  0  0  0  0  0  0  0  0  0
   -3.0132    2.7461    1.1004 H   0  0  0  0  0  0  0  0  0  0  0  0
   -2.1256    2.5397    2.6337 H   0  0  0  0  0  0  0  0  0  0  0  0
   -4.5357    2.5222    3.0338 H   0  0  0  0  0  0  0  0  0  0  0  0
   -3.8180    0.9803    3.4738 H   0  0  0  0  0  0  0  0  0  0  0  0
   -6.0097    0.7080    2.2211 H   0  0  0  0  0  0  0  0  0  0  0  0
   -5.2863    1.5664    0.8395 H   0  0  0  0  0  0  0  0  0  0  0  0
   -3.4982   -0.1914    1.0520 H   0  0  0  0  0  0  0  0  0  0  0  0
   -4.1110   -1.2173    3.0877 H   0  0  0  0  0  0  0  0  0  0  0  0
   -4.1113   -2.3771    1.7313 H   0  0  0  0  0  0  0  0  0  0  0  0
   -5.6715   -1.7206    2.3439 H   0  0  0  0  0  0  0  0  0  0  0  0
   -4.5633   -1.6602   -0.4946 H   0  0  0  0  0  0  0  0  0  0  0  0
   -4.8478    0.0668   -0.8544 H   0  0  0  0  0  0  0  0  0  0  0  0
   -6.1421   -0.9061   -0.0624 H   0  0  0  0  0  0  0  0  0  0  0  0
   -0.7407   -0.9755    0.4281 H   0  0  0  0  0  0  0  0  0  0  0  0
    1.8703   -1.3147   -3.1970 H   0  0  0  0  0  0  0  0  0  0  0  0
    4.0383   -1.8426   -4.2497 H   0  0  0  0  0  0  0  0  0  0  0  0
    6.5046   -2.0359   -3.9421 H   0  0  0  0  0  0  0  0  0  0  0  0
    7.1919   -2.3540   -2.3498 H   0  0  0  0  0  0  0  0  0  0  0  0
    6.3826   -3.6680   -3.2393 H   0  0  0  0  0  0  0  0  0  0  0  0
    5.7186   -2.6225   -0.3564 H   0  0  0  0  0  0  0  0  0  0  0  0
    3.5430   -2.0911    0.6781 H   0  0  0  0  0  0  0  0  0  0  0  0
    4.5560    2.4339   -1.2359 H   0  0  0  0  0  0  0  0  0  0  0  0
    3.3995    4.4736   -0.3139 H   0  0  0  0  0  0  0  0  0  0  0  0
  1  2  1  0
  2  3  2  3
  3  4  1  0
  4  5  1  0
  5  6  1  0
  6  7  1  0
  7  8  1  0
  7  9  1  0
  2 10  1  0
 10 11  1  0
 11 12  2  3
 12 13  1  0
 13 14  2  0
 14 15  1  0
 15 16  2  0
 16 17  1  0
 16 18  1  0
 18 19  2  0
 11 20  1  0
 20 21  2  0
 21 22  1  0
 22 23  2  0
 23 24  1  0
 24 25  2  0
 25  1  1  0
 19 13  1  0
 25 20  1  0
  1 26  1  0
  4 27  1  0
  4 28  1  0
  5 29  1  0
  5 30  1  0
  6 31  1  0
  6 32  1  0
  7 33  1  0
  8 34  1  0
  8 35  1  0
  8 36  1  0
  9 37  1  0
  9 38  1  0
  9 39  1  0
 10 40  1  0
 14 41  1  0
 15 42  1  0
 17 43  1  0
 17 44  1  0
 17 45  1  0
 18 46  1  0
 19 47  1  0
 22 48  1  0
 23 49  1  0
M  CHG  1   7   1
M  END
>  <ScrubInfo>  (8) 
{"isomerGroup": 0, "isomerId": 7, "confId": 0, "nr_conformers:": 1, "nr_isomers:": 9}

$$$$
_i8
     RDKit          3D

 49 51  0  0  0  0  0  0  0  0999 V2000
   -0.7897    1.4160   -3.1066 N   0  0  0  0  0  0  0  0  0  0  0  0
   -2.1173    1.6987   -3.2715 C   0  0  0  0  0  0  0  0  0  0  0  0
   -3.0272    1.2901   -2.3746 C   0  0  0  0  0  0  0  0  0  0  0  0
   -2.7187    0.5678   -1.2429 N   0  0  0  0  0  0  0  0  0  0  0  0
   -1.4689    0.2541   -1.0366 C   0  0  0  0  0  0  0  0  0  0  0  0
   -1.0148   -0.5423    0.1724 C   0  0  0  0  0  0  0  0  0  0  0  0
   -1.7294   -1.0258    1.1481 N   0  0  0  0  0  0  0  0  0  0  0  0
   -3.1172   -0.8594    1.1926 C   0  0  0  0  0  0  0  0  0  0  0  0
   -3.6771    0.2226    1.8753 C   0  0  0  0  0  0  0  0  0  0  0  0
   -5.0648    0.3635    1.9642 C   0  0  0  0  0  0  0  0  0  0  0  0
   -5.9116   -0.5936    1.3933 C   0  0  0  0  0  0  0  0  0  0  0  0
   -7.4010   -0.4265    1.4577 C   0  0  0  0  0  0  0  0  0  0  0  0
   -5.3489   -1.6826    0.7176 C   0  0  0  0  0  0  0  0  0  0  0  0
   -3.9608   -1.8201    0.6309 C   0  0  0  0  0  0  0  0  0  0  0  0
    0.3334   -0.7456    0.1809 N   0  0  0  0  0  0  0  0  0  0  0  0
    1.2489   -0.3485   -0.7372 C   0  0  0  0  0  0  0  0  0  0  0  0
    2.4949   -0.6559   -0.5488 N   0  0  0  0  0  0  0  0  0  0  0  0
    3.4598   -0.2855   -1.5908 C   0  0  0  0  0  0  0  0  0  0  0  0
    4.1235    1.0537   -1.2734 C   0  0  0  0  0  0  0  0  0  0  0  0
    4.3573    1.3488    0.2085 C   0  0  0  0  0  0  0  0  0  0  0  0
    4.8590    0.1491    0.9748 N   0  0  0  0  0  4  0  0  0  0  0  0
    6.2492   -0.2720    0.6046 C   0  0  0  0  0  0  0  0  0  0  0  0
    4.7173    0.3358    2.4580 C   0  0  0  0  0  0  0  0  0  0  0  0
    0.8922    0.3901   -1.8326 N   0  0  0  0  0  0  0  0  0  0  0  0
   -0.3608    0.6895   -2.0235 C   0  0  0  0  0  0  0  0  0  0  0  0
   -0.1292    1.7036   -3.8166 H   0  0  0  0  0  0  0  0  0  0  0  0
   -2.3826    2.2630   -4.1596 H   0  0  0  0  0  0  0  0  0  0  0  0
   -4.0812    1.5195   -2.5156 H   0  0  0  0  0  0  0  0  0  0  0  0
   -3.0325    0.9630    2.3378 H   0  0  0  0  0  0  0  0  0  0  0  0
   -5.4800    1.2226    2.4858 H   0  0  0  0  0  0  0  0  0  0  0  0
   -7.7506    0.1470    0.5937 H   0  0  0  0  0  0  0  0  0  0  0  0
   -7.6962    0.0968    2.3733 H   0  0  0  0  0  0  0  0  0  0  0  0
   -7.9034   -1.3995    1.4639 H   0  0  0  0  0  0  0  0  0  0  0  0
   -5.9871   -2.4338    0.2583 H   0  0  0  0  0  0  0  0  0  0  0  0
   -3.5382   -2.6791    0.1191 H   0  0  0  0  0  0  0  0  0  0  0  0
    0.6651   -1.3288    0.9348 H   0  0  0  0  0  0  0  0  0  0  0  0
    4.2259   -1.0699   -1.6089 H   0  0  0  0  0  0  0  0  0  0  0  0
    3.0427   -0.2841   -2.6048 H   0  0  0  0  0  0  0  0  0  0  0  0
    3.5014    1.8628   -1.6767 H   0  0  0  0  0  0  0  0  0  0  0  0
    5.0730    1.1124   -1.8191 H   0  0  0  0  0  0  0  0  0  0  0  0
    5.0778    2.1627    0.3463 H   0  0  0  0  0  0  0  0  0  0  0  0
    3.4101    1.6480    0.6726 H   0  0  0  0  0  0  0  0  0  0  0  0
    4.2074   -0.6160    0.7213 H   0  0  0  0  0  0  0  0  0  0  0  0
    6.4906   -1.1784    1.1664 H   0  0  0  0  0  0  0  0  0  0  0  0
    6.2810   -0.4871   -0.4652 H   0  0  0  0  0  0  0  0  0  0  0  0
    6.9376    0.5385    0.8587 H   0  0  0  0  0  0  0  0  0  0  0  0
    3.6657    0.5383    2.6786 H   0  0  0  0  0  0  0  0  0  0  0  0
    5.0241   -0.5914    2.9493 H   0  0  0  0  0  0  0  0  0  0  0  0
    5.3511    1.1716    2.7662 H   0  0  0  0  0  0  0  0  0  0  0  0
  1  2  1  0
  2  3  2  0
  3  4  1  0
  4  5  2  0
  5  6  1  0
  6  7  2  3
  7  8  1  0
  8  9  2  0
  9 10  1  0
 10 11  2  0
 11 12  1  0
 11 13  1  0
 13 14  2  0
  6 15  1  0
 15 16  1  0
 16 17  2  3
 17 18  1  0
 18 19  1  0
 19 20  1  0
 20 21  1  0
 21 22  1  0
 21 23  1  0
 16 24  1  0
 24 25  2  0
 25  1  1  0
 25  5  1  0
 14  8  1  0
  1 26  1  0
  2 27  1  0
  3 28  1  0
  9 29  1  0
 10 30  1  0
 12 31  1  0
 12 32  1  0
 12 33  1  0
 13 34  1  0
 14 35  1  0
 15 36  1  0
 18 37  1  0
 18 38  1  0
 19 39  1  0
 19 40  1  0
 20 41  1  0
 20 42  1  0
 21 43  1  0
 22 44  1  0
 22 45  1  0
 22 46  1  0
 23 47  1  0
 23 48  1  0
 23 49  1  0
M  CHG  1  21   1
M  END
>  <ScrubInfo>  (9) 
{"isomerGroup": 0, "isomerId": 8, "confId": 0, "nr_conformers:": 1, "nr_isomers:": 9}

$$$$
