REMARK SMILES Cc1ccc(Nc2nc(NCCCO)c3ccccc3n2)cc1
REMARK SMILES IDX 10 1 9 3 7 4 8 5 21 6 20 7 15 8 19 9 16 10 18 11 17 12 6 13
REMARK SMILES IDX 5 15 2 16 3 17 23 18 4 19 22 20 1 21 11 22 12 23 13 24 14 25
REMARK H PARENT 10 2 6 14 14 26
ROOT
ATOM      1  N   UNL     1      -3.465  -0.674   0.163  1.00  0.00    -0.369 N 
ATOM      2  H   UNL     1      -3.880  -1.354   0.797  1.00  0.00     0.162 HD
ENDROOT
BRANCH   1   3
ATOM      3  C   UNL     1      -2.085  -0.975   0.066  1.00  0.00     0.139 A 
ATOM      4  C   UNL     1       0.116  -0.307   0.238  1.00  0.00     0.229 A 
ATOM      5  N   UNL     1      -1.188  -0.009   0.324  1.00  0.00    -0.195 NA
ATOM      6  N   UNL     1       0.574  -1.521  -0.083  1.00  0.00    -0.213 NA
ATOM      7  C   UNL     1      -0.313  -2.479  -0.360  1.00  0.00     0.078 A 
ATOM      8  C   UNL     1      -1.692  -2.269  -0.312  1.00  0.00     0.043 A 
ATOM      9  C   UNL     1       0.157  -3.739  -0.714  1.00  0.00     0.029 A 
ATOM     10  C   UNL     1      -2.573  -3.332  -0.643  1.00  0.00     0.014 A 
ATOM     11  C   UNL     1      -0.708  -4.790  -1.029  1.00  0.00     0.002 A 
ATOM     12  C   UNL     1      -2.080  -4.585  -0.998  1.00  0.00     0.001 A 
BRANCH   4  13
ATOM     13  N   UNL     1       0.972   0.755   0.515  1.00  0.00    -0.324 N 
ATOM     14  H   UNL     1       0.418   1.579   0.696  1.00  0.00     0.170 HD
BRANCH  13  15
ATOM     15  C   UNL     1       2.362   0.908   0.541  1.00  0.00     0.041 A 
ATOM     16  C   UNL     1       5.165   1.353   0.647  1.00  0.00    -0.051 A 
ATOM     17  C   UNL     1       4.651   0.090   0.344  1.00  0.00     0.005 A 
ATOM     18  C   UNL     1       4.271   2.401   0.879  1.00  0.00     0.005 A 
ATOM     19  C   UNL     1       3.268  -0.127   0.299  1.00  0.00     0.026 A 
ATOM     20  C   UNL     1       2.891   2.176   0.832  1.00  0.00     0.026 A 
ATOM     21  C   UNL     1       6.644   1.592   0.662  1.00  0.00     0.044 C 
ENDBRANCH  13  15
ENDBRANCH   4  13
ENDBRANCH   1   3
BRANCH   1  22
ATOM     22  C   UNL     1      -3.805   0.693   0.559  1.00  0.00     0.117 C 
BRANCH  22  23
ATOM     23  C   UNL     1      -3.726   1.648  -0.630  1.00  0.00     0.049 C 
BRANCH  23  24
ATOM     24  C   UNL     1      -4.185   3.045  -0.238  1.00  0.00     0.158 C 
BRANCH  24  25
ATOM     25  O   UNL     1      -4.061   3.934  -1.341  1.00  0.00    -0.396 OA
ATOM     26  H   UNL     1      -4.526   3.537  -2.097  1.00  0.00     0.210 HD
ENDBRANCH  24  25
ENDBRANCH  23  24
ENDBRANCH  22  23
ENDBRANCH   1  22
TORSDOF 7
