_i0
     RDKit          3D

 43 45  0  0  0  0  0  0  0  0999 V2000
    6.6442    1.5921    0.6616 C   0  0  0  0  0  0  0  0  0  0  0  0
    5.1645    1.3531    0.6471 C   0  0  0  0  0  0  0  0  0  0  0  0
    4.6510    0.0899    0.3445 C   0  0  0  0  0  0  0  0  0  0  0  0
    3.2676   -0.1271    0.2988 C   0  0  0  0  0  0  0  0  0  0  0  0
    2.3616    0.9084    0.5411 C   0  0  0  0  0  0  0  0  0  0  0  0
    0.9719    0.7553    0.5148 N   0  0  0  0  0  0  0  0  0  0  0  0
    0.1160   -0.3073    0.2383 C   0  0  0  0  0  0  0  0  0  0  0  0
   -1.1876   -0.0094    0.3241 N   0  0  0  0  0  0  0  0  0  0  0  0
   -2.0848   -0.9753    0.0661 C   0  0  0  0  0  0  0  0  0  0  0  0
   -3.4651   -0.6741    0.1629 N   0  0  0  0  0  0  0  0  0  0  0  0
   -3.8046    0.6927    0.5586 C   0  0  0  0  0  0  0  0  0  0  0  0
   -3.7264    1.6482   -0.6300 C   0  0  0  0  0  0  0  0  0  0  0  0
   -4.1848    3.0452   -0.2382 C   0  0  0  0  0  0  0  0  0  0  0  0
   -4.0611    3.9344   -1.3406 O   0  0  0  0  0  0  0  0  0  0  0  0
   -1.6924   -2.2689   -0.3122 C   0  0  0  0  0  0  0  0  0  0  0  0
   -2.5734   -3.3315   -0.6434 C   0  0  0  0  0  0  0  0  0  0  0  0
   -2.0802   -4.5850   -0.9978 C   0  0  0  0  0  0  0  0  0  0  0  0
   -0.7082   -4.7904   -1.0294 C   0  0  0  0  0  0  0  0  0  0  0  0
    0.1569   -3.7390   -0.7137 C   0  0  0  0  0  0  0  0  0  0  0  0
   -0.3126   -2.4791   -0.3599 C   0  0  0  0  0  0  0  0  0  0  0  0
    0.5737   -1.5206   -0.0834 N   0  0  0  0  0  0  0  0  0  0  0  0
    2.8908    2.1762    0.8315 C   0  0  0  0  0  0  0  0  0  0  0  0
    4.2715    2.4005    0.8787 C   0  0  0  0  0  0  0  0  0  0  0  0
    6.9043    2.3901    1.3651 H   0  0  0  0  0  0  0  0  0  0  0  0
    7.1822    0.6924    0.9786 H   0  0  0  0  0  0  0  0  0  0  0  0
    6.9874    1.8760   -0.3379 H   0  0  0  0  0  0  0  0  0  0  0  0
    5.3208   -0.7425    0.1412 H   0  0  0  0  0  0  0  0  0  0  0  0
    2.9203   -1.1287    0.0662 H   0  0  0  0  0  0  0  0  0  0  0  0
    0.4185    1.5793    0.6957 H   0  0  0  0  0  0  0  0  0  0  0  0
   -3.8798   -1.3538    0.7968 H   0  0  0  0  0  0  0  0  0  0  0  0
   -3.1955    1.0393    1.4027 H   0  0  0  0  0  0  0  0  0  0  0  0
   -4.8400    0.6768    0.9212 H   0  0  0  0  0  0  0  0  0  0  0  0
   -2.7087    1.7023   -1.0337 H   0  0  0  0  0  0  0  0  0  0  0  0
   -4.3466    1.2766   -1.4559 H   0  0  0  0  0  0  0  0  0  0  0  0
   -5.2309    3.0426    0.0848 H   0  0  0  0  0  0  0  0  0  0  0  0
   -3.5753    3.4409    0.5802 H   0  0  0  0  0  0  0  0  0  0  0  0
   -4.5259    3.5372   -2.0971 H   0  0  0  0  0  0  0  0  0  0  0  0
   -3.6493   -3.1730   -0.6398 H   0  0  0  0  0  0  0  0  0  0  0  0
   -2.7626   -5.3914   -1.2528 H   0  0  0  0  0  0  0  0  0  0  0  0
   -0.3041   -5.7609   -1.3055 H   0  0  0  0  0  0  0  0  0  0  0  0
    1.2315   -3.9063   -0.7495 H   0  0  0  0  0  0  0  0  0  0  0  0
    2.2253    3.0147    1.0222 H   0  0  0  0  0  0  0  0  0  0  0  0
    4.6398    3.3998    1.0982 H   0  0  0  0  0  0  0  0  0  0  0  0
  1  2  1  0
  2  3  2  0
  3  4  1  0
  4  5  2  0
  5  6  1  0
  6  7  1  0
  7  8  2  0
  8  9  1  0
  9 10  1  0
 10 11  1  0
 11 12  1  0
 12 13  1  0
 13 14  1  0
  9 15  2  0
 15 16  1  0
 16 17  2  0
 17 18  1  0
 18 19  2  0
 19 20  1  0
 20 21  2  0
  5 22  1  0
 22 23  2  0
 23  2  1  0
 21  7  1  0
 20 15  1  0
  1 24  1  0
  1 25  1  0
  1 26  1  0
  3 27  1  0
  4 28  1  0
  6 29  1  0
 10 30  1  0
 11 31  1  0
 11 32  1  0
 12 33  1  0
 12 34  1  0
 13 35  1  0
 13 36  1  0
 14 37  1  0
 16 38  1  0
 17 39  1  0
 18 40  1  0
 19 41  1  0
 22 42  1  0
 23 43  1  0
M  END
>  <ScrubInfo>  (1) 
{"isomerGroup": 0, "isomerId": 0, "confId": 0, "nr_conformers:": 1, "nr_isomers:": 6}

$$$$
_i1
     RDKit          3D

 43 45  0  0  0  0  0  0  0  0999 V2000
    0.7548   -0.6469   -0.4830 N   0  0  0  0  0  0  0  0  0  0  0  0
    1.7339    0.2860   -0.2451 C   0  0  0  0  0  0  0  0  0  0  0  0
    3.0780   -0.0792   -0.2895 N   0  0  0  0  0  0  0  0  0  0  0  0
    3.6041   -1.2895   -0.9062 C   0  0  0  0  0  0  0  0  0  0  0  0
    5.0998   -1.4190   -0.6407 C   0  0  0  0  0  0  0  0  0  0  0  0
    5.4081   -1.6706    0.8289 C   0  0  0  0  0  0  0  0  0  0  0  0
    6.8146   -1.8253    0.9772 O   0  0  0  0  0  0  0  0  0  0  0  0
    1.3305    1.5523    0.0366 C   0  0  0  0  0  0  0  0  0  0  0  0
    2.1787    2.6877    0.3601 C   0  0  0  0  0  0  0  0  0  0  0  0
    1.6557    3.8997    0.5939 C   0  0  0  0  0  0  0  0  0  0  0  0
    0.2335    4.1294    0.5353 C   0  0  0  0  0  0  0  0  0  0  0  0
   -0.6371    3.1470    0.2707 C   0  0  0  0  0  0  0  0  0  0  0  0
   -0.1697    1.7556    0.0101 C   0  0  0  0  0  0  0  0  0  0  0  0
   -1.0646    0.8452   -0.2182 N   0  0  0  0  0  0  0  0  0  0  0  0
   -0.5876   -0.4169   -0.4505 C   0  0  0  0  0  0  0  0  0  0  0  0
   -1.3959   -1.4201   -0.6428 N   0  0  0  0  0  0  0  0  0  0  0  0
   -2.7798   -1.1962   -0.6108 C   0  0  0  0  0  0  0  0  0  0  0  0
   -3.4914   -1.3376    0.5823 C   0  0  0  0  0  0  0  0  0  0  0  0
   -4.8768   -1.1543    0.6097 C   0  0  0  0  0  0  0  0  0  0  0  0
   -5.5707   -0.8275   -0.5615 C   0  0  0  0  0  0  0  0  0  0  0  0
   -7.0610   -0.6632   -0.5413 C   0  0  0  0  0  0  0  0  0  0  0  0
   -4.8607   -0.7155   -1.7629 C   0  0  0  0  0  0  0  0  0  0  0  0
   -3.4753   -0.8997   -1.7847 C   0  0  0  0  0  0  0  0  0  0  0  0
    1.0252   -1.6067   -0.6062 H   0  0  0  0  0  0  0  0  0  0  0  0
    3.6938    0.7206   -0.4096 H   0  0  0  0  0  0  0  0  0  0  0  0
    3.0900   -2.1768   -0.5203 H   0  0  0  0  0  0  0  0  0  0  0  0
    3.4323   -1.2441   -1.9876 H   0  0  0  0  0  0  0  0  0  0  0  0
    5.5029   -2.2481   -1.2358 H   0  0  0  0  0  0  0  0  0  0  0  0
    5.6335   -0.5219   -0.9792 H   0  0  0  0  0  0  0  0  0  0  0  0
    4.9200   -2.5851    1.1805 H   0  0  0  0  0  0  0  0  0  0  0  0
    5.0871   -0.8315    1.4536 H   0  0  0  0  0  0  0  0  0  0  0  0
    6.9842   -1.9877    1.9215 H   0  0  0  0  0  0  0  0  0  0  0  0
    3.2511    2.5536    0.4330 H   0  0  0  0  0  0  0  0  0  0  0  0
    2.2950    4.7418    0.8433 H   0  0  0  0  0  0  0  0  0  0  0  0
   -0.1228    5.1380    0.7238 H   0  0  0  0  0  0  0  0  0  0  0  0
   -1.7071    3.3156    0.2347 H   0  0  0  0  0  0  0  0  0  0  0  0
   -2.9591   -1.5904    1.4943 H   0  0  0  0  0  0  0  0  0  0  0  0
   -5.4076   -1.2698    1.5513 H   0  0  0  0  0  0  0  0  0  0  0  0
   -7.5463   -1.6270   -0.7229 H   0  0  0  0  0  0  0  0  0  0  0  0
   -7.3979   -0.2734    0.4251 H   0  0  0  0  0  0  0  0  0  0  0  0
   -7.3861    0.0473   -1.3086 H   0  0  0  0  0  0  0  0  0  0  0  0
   -5.3787   -0.4852   -2.6904 H   0  0  0  0  0  0  0  0  0  0  0  0
   -2.9304   -0.8109   -2.7197 H   0  0  0  0  0  0  0  0  0  0  0  0
  1  2  1  0
  2  3  1  0
  3  4  1  0
  4  5  1  0
  5  6  1  0
  6  7  1  0
  2  8  2  0
  8  9  1  0
  9 10  2  0
 10 11  1  0
 11 12  2  0
 12 13  1  0
 13 14  2  0
 14 15  1  0
 15 16  2  3
 16 17  1  0
 17 18  2  0
 18 19  1  0
 19 20  2  0
 20 21  1  0
 20 22  1  0
 22 23  2  0
 15  1  1  0
 23 17  1  0
 13  8  1  0
  1 24  1  0
  3 25  1  0
  4 26  1  0
  4 27  1  0
  5 28  1  0
  5 29  1  0
  6 30  1  0
  6 31  1  0
  7 32  1  0
  9 33  1  0
 10 34  1  0
 11 35  1  0
 12 36  1  0
 18 37  1  0
 19 38  1  0
 21 39  1  0
 21 40  1  0
 21 41  1  0
 22 42  1  0
 23 43  1  0
M  END
>  <ScrubInfo>  (2) 
{"isomerGroup": 0, "isomerId": 1, "confId": 0, "nr_conformers:": 1, "nr_isomers:": 6}

$$$$
_i2
     RDKit          3D

 43 45  0  0  0  0  0  0  0  0999 V2000
    0.6052    0.5688    0.7544 N   0  0  0  0  0  0  0  0  0  0  0  0
   -0.6071    0.0230    0.4384 C   0  0  0  0  0  0  0  0  0  0  0  0
   -1.6327    0.9261    0.5709 N   0  0  0  0  0  0  0  0  0  0  0  0
   -2.9974    0.7591    0.2577 C   0  0  0  0  0  0  0  0  0  0  0  0
   -3.4862   -0.2424   -0.5859 C   0  0  0  0  0  0  0  0  0  0  0  0
   -4.8507   -0.3369   -0.8882 C   0  0  0  0  0  0  0  0  0  0  0  0
   -5.7636    0.5755   -0.3545 C   0  0  0  0  0  0  0  0  0  0  0  0
   -7.2186    0.4925   -0.7061 C   0  0  0  0  0  0  0  0  0  0  0  0
   -5.2849    1.6030    0.4602 C   0  0  0  0  0  0  0  0  0  0  0  0
   -3.9205    1.6922    0.7590 C   0  0  0  0  0  0  0  0  0  0  0  0
   -0.7091   -1.2166    0.0622 N   0  0  0  0  0  0  0  0  0  0  0  0
    0.4677   -1.9995    0.0357 C   0  0  0  0  0  0  0  0  0  0  0  0
    0.3094   -3.3557   -0.2746 C   0  0  0  0  0  0  0  0  0  0  0  0
    1.4005   -4.2221   -0.2762 C   0  0  0  0  0  0  0  0  0  0  0  0
    2.6638   -3.7390    0.0481 C   0  0  0  0  0  0  0  0  0  0  0  0
    2.8435   -2.3868    0.3579 C   0  0  0  0  0  0  0  0  0  0  0  0
    1.7599   -1.5025    0.3312 C   0  0  0  0  0  0  0  0  0  0  0  0
    1.8284   -0.0374    0.6332 C   0  0  0  0  0  0  0  0  0  0  0  0
    2.8445    0.7499    0.7653 N   0  0  0  0  0  0  0  0  0  0  0  0
    4.2329    0.3874    0.5873 C   0  0  0  0  0  0  0  0  0  0  0  0
    5.0766    1.6616    0.5610 C   0  0  0  0  0  0  0  0  0  0  0  0
    4.7733    2.5390   -0.6473 C   0  0  0  0  0  0  0  0  0  0  0  0
    5.6382    3.6710   -0.6538 O   0  0  0  0  0  0  0  0  0  0  0  0
    0.6726    1.5721    0.8269 H   0  0  0  0  0  0  0  0  0  0  0  0
   -1.4749    1.6576    1.2487 H   0  0  0  0  0  0  0  0  0  0  0  0
   -2.8159   -0.9670   -1.0389 H   0  0  0  0  0  0  0  0  0  0  0  0
   -5.1884   -1.1316   -1.5498 H   0  0  0  0  0  0  0  0  0  0  0  0
   -7.4186    1.0730   -1.6120 H   0  0  0  0  0  0  0  0  0  0  0  0
   -7.8398    0.8811    0.1078 H   0  0  0  0  0  0  0  0  0  0  0  0
   -7.5205   -0.5462   -0.8770 H   0  0  0  0  0  0  0  0  0  0  0  0
   -5.9684    2.3439    0.8685 H   0  0  0  0  0  0  0  0  0  0  0  0
   -3.5882    2.5080    1.3961 H   0  0  0  0  0  0  0  0  0  0  0  0
   -0.6836   -3.7345   -0.5049 H   0  0  0  0  0  0  0  0  0  0  0  0
    1.2589   -5.2730   -0.5146 H   0  0  0  0  0  0  0  0  0  0  0  0
    3.5136   -4.4176    0.0685 H   0  0  0  0  0  0  0  0  0  0  0  0
    3.8393   -2.0731    0.6350 H   0  0  0  0  0  0  0  0  0  0  0  0
    4.5741   -0.2187    1.4328 H   0  0  0  0  0  0  0  0  0  0  0  0
    4.3914   -0.1581   -0.3489 H   0  0  0  0  0  0  0  0  0  0  0  0
    4.9218    2.2430    1.4787 H   0  0  0  0  0  0  0  0  0  0  0  0
    6.1396    1.3907    0.5525 H   0  0  0  0  0  0  0  0  0  0  0  0
    4.9189    1.9914   -1.5841 H   0  0  0  0  0  0  0  0  0  0  0  0
    3.7436    2.9080   -0.6224 H   0  0  0  0  0  0  0  0  0  0  0  0
    6.5512    3.3407   -0.6993 H   0  0  0  0  0  0  0  0  0  0  0  0
  1  2  1  0
  2  3  1  0
  3  4  1  0
  4  5  2  0
  5  6  1  0
  6  7  2  0
  7  8  1  0
  7  9  1  0
  9 10  2  0
  2 11  2  0
 11 12  1  0
 12 13  2  0
 13 14  1  0
 14 15  2  0
 15 16  1  0
 16 17  2  0
 17 18  1  0
 18 19  2  3
 19 20  1  0
 20 21  1  0
 21 22  1  0
 22 23  1  0
 18  1  1  0
 10  4  1  0
 17 12  1  0
  1 24  1  0
  3 25  1  0
  5 26  1  0
  6 27  1  0
  8 28  1  0
  8 29  1  0
  8 30  1  0
  9 31  1  0
 10 32  1  0
 13 33  1  0
 14 34  1  0
 15 35  1  0
 16 36  1  0
 20 37  1  0
 20 38  1  0
 21 39  1  0
 21 40  1  0
 22 41  1  0
 22 42  1  0
 23 43  1  0
M  END
>  <ScrubInfo>  (3) 
{"isomerGroup": 0, "isomerId": 2, "confId": 0, "nr_conformers:": 1, "nr_isomers:": 6}

$$$$
_i3
     RDKit          3D

 43 45  0  0  0  0  0  0  0  0999 V2000
    0.8943   -0.9624   -0.6621 N   0  0  0  0  0  0  0  0  0  0  0  0
    0.5238    0.2282   -0.0921 C   0  0  0  0  0  0  0  0  0  0  0  0
    1.3391    1.1398    0.3471 N   0  0  0  0  0  0  0  0  0  0  0  0
    2.7190    0.9310    0.2542 C   0  0  0  0  0  0  0  0  0  0  0  0
    3.4163    0.3554    1.3176 C   0  0  0  0  0  0  0  0  0  0  0  0
    4.7928    0.1350    1.2258 C   0  0  0  0  0  0  0  0  0  0  0  0
    5.4902    0.4903    0.0649 C   0  0  0  0  0  0  0  0  0  0  0  0
    6.9749    0.2929   -0.0196 C   0  0  0  0  0  0  0  0  0  0  0  0
    4.7948    1.0981   -0.9874 C   0  0  0  0  0  0  0  0  0  0  0  0
    3.4183    1.3166   -0.8909 C   0  0  0  0  0  0  0  0  0  0  0  0
   -0.7982    0.5651    0.0581 N   0  0  0  0  0  0  0  0  0  0  0  0
   -1.7324   -0.2926   -0.2441 C   0  0  0  0  0  0  0  0  0  0  0  0
   -3.0625    0.0770   -0.1195 N   0  0  0  0  0  0  0  0  0  0  0  0
   -3.4271    1.4465    0.2192 C   0  0  0  0  0  0  0  0  0  0  0  0
   -4.9360    1.5528    0.3985 C   0  0  0  0  0  0  0  0  0  0  0  0
   -5.3440    2.9621    0.7974 C   0  0  0  0  0  0  0  0  0  0  0  0
   -6.7601    3.0138    0.9130 O   0  0  0  0  0  0  0  0  0  0  0  0
   -1.4057   -1.6714   -0.7311 C   0  0  0  0  0  0  0  0  0  0  0  0
   -2.3749   -2.6521   -0.9694 C   0  0  0  0  0  0  0  0  0  0  0  0
   -1.9863   -3.9073   -1.4407 C   0  0  0  0  0  0  0  0  0  0  0  0
   -0.6383   -4.1812   -1.6698 C   0  0  0  0  0  0  0  0  0  0  0  0
    0.3284   -3.2067   -1.4130 C   0  0  0  0  0  0  0  0  0  0  0  0
   -0.0485   -1.9536   -0.9215 C   0  0  0  0  0  0  0  0  0  0  0  0
    1.8708   -1.2074   -0.6482 H   0  0  0  0  0  0  0  0  0  0  0  0
    2.8809    0.0862    2.2244 H   0  0  0  0  0  0  0  0  0  0  0  0
    5.3166   -0.3066    2.0705 H   0  0  0  0  0  0  0  0  0  0  0  0
    7.4926    1.1768    0.3654 H   0  0  0  0  0  0  0  0  0  0  0  0
    7.2875    0.1220   -1.0551 H   0  0  0  0  0  0  0  0  0  0  0  0
    7.2860   -0.5815    0.5617 H   0  0  0  0  0  0  0  0  0  0  0  0
    5.3202    1.4144   -1.8856 H   0  0  0  0  0  0  0  0  0  0  0  0
    2.8845    1.7960   -1.7072 H   0  0  0  0  0  0  0  0  0  0  0  0
   -3.7034   -0.3618   -0.7694 H   0  0  0  0  0  0  0  0  0  0  0  0
   -2.9271    1.7455    1.1481 H   0  0  0  0  0  0  0  0  0  0  0  0
   -3.0982    2.1220   -0.5791 H   0  0  0  0  0  0  0  0  0  0  0  0
   -5.2834    0.8408    1.1581 H   0  0  0  0  0  0  0  0  0  0  0  0
   -5.4524    1.2676   -0.5271 H   0  0  0  0  0  0  0  0  0  0  0  0
   -4.9051    3.2383    1.7615 H   0  0  0  0  0  0  0  0  0  0  0  0
   -5.0319    3.6899    0.0417 H   0  0  0  0  0  0  0  0  0  0  0  0
   -6.9903    3.9149    1.1988 H   0  0  0  0  0  0  0  0  0  0  0  0
   -3.4268   -2.4665   -0.7811 H   0  0  0  0  0  0  0  0  0  0  0  0
   -2.7353   -4.6734   -1.6280 H   0  0  0  0  0  0  0  0  0  0  0  0
   -0.3384   -5.1578   -2.0429 H   0  0  0  0  0  0  0  0  0  0  0  0
    1.3753   -3.4367   -1.5926 H   0  0  0  0  0  0  0  0  0  0  0  0
  1  2  1  0
  2  3  2  3
  3  4  1  0
  4  5  2  0
  5  6  1  0
  6  7  2  0
  7  8  1  0
  7  9  1  0
  9 10  2  0
  2 11  1  0
 11 12  2  0
 12 13  1  0
 13 14  1  0
 14 15  1  0
 15 16  1  0
 16 17  1  0
 12 18  1  0
 18 19  2  0
 19 20  1  0
 20 21  2  0
 21 22  1  0
 22 23  2  0
 23  1  1  0
 10  4  1  0
 23 18  1  0
  1 24  1  0
  5 25  1  0
  6 26  1  0
  8 27  1  0
  8 28  1  0
  8 29  1  0
  9 30  1  0
 10 31  1  0
 13 32  1  0
 14 33  1  0
 14 34  1  0
 15 35  1  0
 15 36  1  0
 16 37  1  0
 16 38  1  0
 17 39  1  0
 19 40  1  0
 20 41  1  0
 21 42  1  0
 22 43  1  0
M  END
>  <ScrubInfo>  (4) 
{"isomerGroup": 0, "isomerId": 3, "confId": 0, "nr_conformers:": 1, "nr_isomers:": 6}

$$$$
_i4
     RDKit          3D

 43 45  0  0  0  0  0  0  0  0999 V2000
    0.5505   -1.3630   -0.2933 N   0  0  0  0  0  0  0  0  0  0  0  0
    0.5159   -0.3927    0.6722 C   0  0  0  0  0  0  0  0  0  0  0  0
    1.7201   -0.0825    1.2426 N   0  0  0  0  0  0  0  0  0  0  0  0
    2.9468    0.1417    0.5793 C   0  0  0  0  0  0  0  0  0  0  0  0
    3.0545    0.3410   -0.8013 C   0  0  0  0  0  0  0  0  0  0  0  0
    4.3013    0.5456   -1.4023 C   0  0  0  0  0  0  0  0  0  0  0  0
    5.4696    0.5447   -0.6344 C   0  0  0  0  0  0  0  0  0  0  0  0
    6.8018    0.8005   -1.2740 C   0  0  0  0  0  0  0  0  0  0  0  0
    5.3681    0.3661    0.7479 C   0  0  0  0  0  0  0  0  0  0  0  0
    4.1201    0.1640    1.3452 C   0  0  0  0  0  0  0  0  0  0  0  0
   -0.5632    0.1692    1.1264 N   0  0  0  0  0  0  0  0  0  0  0  0
   -1.7569   -0.1404    0.5100 C   0  0  0  0  0  0  0  0  0  0  0  0
   -2.6298    0.7963    0.6041 N   0  0  0  0  0  0  0  0  0  0  0  0
   -3.9063    0.8154   -0.0756 C   0  0  0  0  0  0  0  0  0  0  0  0
   -4.3746    2.2634   -0.2163 C   0  0  0  0  0  0  0  0  0  0  0  0
   -4.6131    2.9401    1.1283 C   0  0  0  0  0  0  0  0  0  0  0  0
   -5.1837    4.2312    0.9256 O   0  0  0  0  0  0  0  0  0  0  0  0
   -1.8642   -1.4580   -0.1888 C   0  0  0  0  0  0  0  0  0  0  0  0
   -3.0593   -2.1464   -0.4137 C   0  0  0  0  0  0  0  0  0  0  0  0
   -3.0488   -3.3531   -1.1179 C   0  0  0  0  0  0  0  0  0  0  0  0
   -1.8468   -3.8784   -1.5893 C   0  0  0  0  0  0  0  0  0  0  0  0
   -0.6462   -3.2180   -1.3275 C   0  0  0  0  0  0  0  0  0  0  0  0
   -0.6463   -2.0297   -0.5904 C   0  0  0  0  0  0  0  0  0  0  0  0
    1.3929   -1.9227   -0.3148 H   0  0  0  0  0  0  0  0  0  0  0  0
    1.5935    0.5888    1.9964 H   0  0  0  0  0  0  0  0  0  0  0  0
    2.1683    0.3758   -1.4303 H   0  0  0  0  0  0  0  0  0  0  0  0
    4.3499    0.7152   -2.4759 H   0  0  0  0  0  0  0  0  0  0  0  0
    6.8207    0.4221   -2.3015 H   0  0  0  0  0  0  0  0  0  0  0  0
    7.6021    0.2919   -0.7263 H   0  0  0  0  0  0  0  0  0  0  0  0
    7.0100    1.8748   -1.2885 H   0  0  0  0  0  0  0  0  0  0  0  0
    6.2591    0.3824    1.3717 H   0  0  0  0  0  0  0  0  0  0  0  0
    4.0707    0.0145    2.4215 H   0  0  0  0  0  0  0  0  0  0  0  0
   -3.8355    0.3918   -1.0831 H   0  0  0  0  0  0  0  0  0  0  0  0
   -4.6529    0.2565    0.4982 H   0  0  0  0  0  0  0  0  0  0  0  0
   -5.3013    2.2853   -0.8032 H   0  0  0  0  0  0  0  0  0  0  0  0
   -3.6430    2.8477   -0.7886 H   0  0  0  0  0  0  0  0  0  0  0  0
   -5.3007    2.3588    1.7511 H   0  0  0  0  0  0  0  0  0  0  0  0
   -3.6771    3.0714    1.6793 H   0  0  0  0  0  0  0  0  0  0  0  0
   -6.0233    4.1066    0.4532 H   0  0  0  0  0  0  0  0  0  0  0  0
   -4.0041   -1.7766   -0.0343 H   0  0  0  0  0  0  0  0  0  0  0  0
   -3.9811   -3.8834   -1.2992 H   0  0  0  0  0  0  0  0  0  0  0  0
   -1.8435   -4.8116   -2.1479 H   0  0  0  0  0  0  0  0  0  0  0  0
    0.2860   -3.6465   -1.6860 H   0  0  0  0  0  0  0  0  0  0  0  0
  1  2  1  0
  2  3  1  0
  3  4  1  0
  4  5  2  0
  5  6  1  0
  6  7  2  0
  7  8  1  0
  7  9  1  0
  9 10  2  0
  2 11  2  0
 11 12  1  0
 12 13  2  3
 13 14  1  0
 14 15  1  0
 15 16  1  0
 16 17  1  0
 12 18  1  0
 18 19  2  0
 19 20  1  0
 20 21  2  0
 21 22  1  0
 22 23  2  0
 23  1  1  0
 10  4  1  0
 23 18  1  0
  1 24  1  0
  3 25  1  0
  5 26  1  0
  6 27  1  0
  8 28  1  0
  8 29  1  0
  8 30  1  0
  9 31  1  0
 10 32  1  0
 14 33  1  0
 14 34  1  0
 15 35  1  0
 15 36  1  0
 16 37  1  0
 16 38  1  0
 17 39  1  0
 19 40  1  0
 20 41  1  0
 21 42  1  0
 22 43  1  0
M  END
>  <ScrubInfo>  (5) 
{"isomerGroup": 0, "isomerId": 4, "confId": 0, "nr_conformers:": 1, "nr_isomers:": 6}

$$$$
_i5
     RDKit          3D

 43 45  0  0  0  0  0  0  0  0999 V2000
    0.8352   -0.9766   -0.4963 N   0  0  0  0  0  0  0  0  0  0  0  0
    0.5280    0.2968   -0.0836 C   0  0  0  0  0  0  0  0  0  0  0  0
    1.3607    1.2550    0.2071 N   0  0  0  0  0  0  0  0  0  0  0  0
    2.7349    1.0056    0.1018 C   0  0  0  0  0  0  0  0  0  0  0  0
    3.4507    0.5245    1.1993 C   0  0  0  0  0  0  0  0  0  0  0  0
    4.8199    0.2675    1.0941 C   0  0  0  0  0  0  0  0  0  0  0  0
    5.4908    0.4899   -0.1144 C   0  0  0  0  0  0  0  0  0  0  0  0
    6.9685    0.2524   -0.2179 C   0  0  0  0  0  0  0  0  0  0  0  0
    4.7771    1.0022   -1.2045 C   0  0  0  0  0  0  0  0  0  0  0  0
    3.4080    1.2578   -1.0948 C   0  0  0  0  0  0  0  0  0  0  0  0
   -0.8138    0.5424    0.0199 N   0  0  0  0  0  0  0  0  0  0  0  0
   -1.8772   -0.2927   -0.2272 C   0  0  0  0  0  0  0  0  0  0  0  0
   -3.1326   -0.0131   -0.1145 N   0  0  0  0  0  0  0  0  0  0  0  0
   -3.5234    1.3241    0.3202 C   0  0  0  0  0  0  0  0  0  0  0  0
   -5.0464    1.3881    0.3691 C   0  0  0  0  0  0  0  0  0  0  0  0
   -5.5305    2.7587    0.8162 C   0  0  0  0  0  0  0  0  0  0  0  0
   -6.9516    2.7669    0.8453 O   0  0  0  0  0  0  0  0  0  0  0  0
   -1.5014   -1.6699   -0.6744 C   0  0  0  0  0  0  0  0  0  0  0  0
   -2.4657   -2.6397   -0.9664 C   0  0  0  0  0  0  0  0  0  0  0  0
   -2.0621   -3.9087   -1.3795 C   0  0  0  0  0  0  0  0  0  0  0  0
   -0.7036   -4.2041   -1.4993 C   0  0  0  0  0  0  0  0  0  0  0  0
    0.2588   -3.2325   -1.2067 C   0  0  0  0  0  0  0  0  0  0  0  0
   -0.1287   -1.9540   -0.7908 C   0  0  0  0  0  0  0  0  0  0  0  0
    1.8085   -1.2267   -0.5944 H   0  0  0  0  0  0  0  0  0  0  0  0
    2.9377    0.3542    2.1420 H   0  0  0  0  0  0  0  0  0  0  0  0
    5.3593   -0.1002    1.9642 H   0  0  0  0  0  0  0  0  0  0  0  0
    7.2794   -0.5655    0.4406 H   0  0  0  0  0  0  0  0  0  0  0  0
    7.2481   -0.0288   -1.2386 H   0  0  0  0  0  0  0  0  0  0  0  0
    7.5138    1.1591    0.0618 H   0  0  0  0  0  0  0  0  0  0  0  0
    5.2828    1.2130   -2.1441 H   0  0  0  0  0  0  0  0  0  0  0  0
    2.8616    1.6600   -1.9436 H   0  0  0  0  0  0  0  0  0  0  0  0
   -1.0152    1.4818    0.3239 H   0  0  0  0  0  0  0  0  0  0  0  0
   -3.1176    1.5360    1.3166 H   0  0  0  0  0  0  0  0  0  0  0  0
   -3.1492    2.0788   -0.3817 H   0  0  0  0  0  0  0  0  0  0  0  0
   -5.4382    0.6193    1.0474 H   0  0  0  0  0  0  0  0  0  0  0  0
   -5.4692    1.1508   -0.6156 H   0  0  0  0  0  0  0  0  0  0  0  0
   -5.1622    2.9940    1.8199 H   0  0  0  0  0  0  0  0  0  0  0  0
   -5.1939    3.5363    0.1232 H   0  0  0  0  0  0  0  0  0  0  0  0
   -7.2277    3.6532    1.1338 H   0  0  0  0  0  0  0  0  0  0  0  0
   -3.5240   -2.4087   -0.8729 H   0  0  0  0  0  0  0  0  0  0  0  0
   -2.8079   -4.6663   -1.6078 H   0  0  0  0  0  0  0  0  0  0  0  0
   -0.3926   -5.1951   -1.8218 H   0  0  0  0  0  0  0  0  0  0  0  0
    1.3109   -3.4857   -1.3072 H   0  0  0  0  0  0  0  0  0  0  0  0
  1  2  1  0
  2  3  2  3
  3  4  1  0
  4  5  2  0
  5  6  1  0
  6  7  2  0
  7  8  1  0
  7  9  1  0
  9 10  2  0
  2 11  1  0
 11 12  1  0
 12 13  2  3
 13 14  1  0
 14 15  1  0
 15 16  1  0
 16 17  1  0
 12 18  1  0
 18 19  2  0
 19 20  1  0
 20 21  2  0
 21 22  1  0
 22 23  2  0
 23  1  1  0
 10  4  1  0
 23 18  1  0
  1 24  1  0
  5 25  1  0
  6 26  1  0
  8 27  1  0
  8 28  1  0
  8 29  1  0
  9 30  1  0
 10 31  1  0
 11 32  1  0
 14 33  1  0
 14 34  1  0
 15 35  1  0
 15 36  1  0
 16 37  1  0
 16 38  1  0
 17 39  1  0
 19 40  1  0
 20 41  1  0
 21 42  1  0
 22 43  1  0
M  END
>  <ScrubInfo>  (6) 
{"isomerGroup": 0, "isomerId": 5, "confId": 0, "nr_conformers:": 1, "nr_isomers:": 6}

$$$$
