REMARK SMILES Cn1ncc2c(Nc3cc(Cl)ccc3O)nc(NCCCNC=O)nc21
REMARK SMILES IDX 18 1 17 3 2 4 3 5 26 6 4 7 25 8 5 9 6 10 16 11 1 12 7 13
REMARK SMILES IDX 8 15 9 16 14 17 10 18 13 19 12 20 11 21 15 22 19 24 20 25
REMARK SMILES IDX 21 26 22 27 23 28 24 30
REMARK H PARENT 18 2 7 14 15 23 22 29
ROOT
ATOM      1  N   UNL     1       1.551   0.569   0.244  1.00  0.00    -0.354 N 
ATOM      2  H   UNL     1       1.138   1.483   0.407  1.00  0.00     0.163 HD
ENDROOT
BRANCH   1   3
ATOM      3  C   UNL     1       0.534  -0.221  -0.277  1.00  0.00     0.226 A 
ATOM      4  N   UNL     1      -0.312  -3.175  -2.056  1.00  0.00    -0.250 N 
ATOM      5  N   UNL     1      -1.571  -3.582  -2.345  1.00  0.00    -0.179 NA
ATOM      6  C   UNL     1      -0.268  -1.998  -1.360  1.00  0.00     0.165 A 
ATOM      7  C   UNL     1      -2.333  -2.626  -1.804  1.00  0.00     0.149 A 
ATOM      8  N   UNL     1       0.823  -1.345  -0.939  1.00  0.00    -0.193 NA
ATOM      9  C   UNL     1      -1.581  -1.612  -1.175  1.00  0.00     0.082 A 
ATOM     10  C   UNL     1      -1.806  -0.419  -0.476  1.00  0.00     0.147 A 
ATOM     11  N   UNL     1      -0.707   0.249  -0.036  1.00  0.00    -0.195 NA
ATOM     12  C   UNL     1       0.809  -3.974  -2.484  1.00  0.00     0.176 C 
BRANCH  10  13
ATOM     13  N   UNL     1      -3.099   0.070  -0.248  1.00  0.00    -0.336 N 
ATOM     14  H   UNL     1      -3.806  -0.524  -0.664  1.00  0.00     0.168 HD
BRANCH  13  15
ATOM     15  C   UNL     1      -3.650   1.202   0.394  1.00  0.00     0.084 A 
ATOM     16  C   UNL     1      -5.030   1.423   0.199  1.00  0.00     0.050 A 
ATOM     17  C   UNL     1      -2.970   2.144   1.184  1.00  0.00     0.139 A 
ATOM     18  C   UNL     1      -5.687   2.519   0.768  1.00  0.00     0.043 A 
ATOM     19  C   UNL     1      -3.629   3.240   1.755  1.00  0.00     0.050 A 
ATOM     20  C   UNL     1      -4.990   3.431   1.548  1.00  0.00     0.024 A 
ATOM     21  Cl  UNL     1      -7.372   2.737   0.496  1.00  0.00    -0.084 Cl
BRANCH  17  22
ATOM     22  O   UNL     1      -1.641   2.076   1.487  1.00  0.00    -0.506 OA
ATOM     23  H   UNL     1      -1.285   1.304   1.001  1.00  0.00     0.293 HD
ENDBRANCH  17  22
ENDBRANCH  13  15
ENDBRANCH  10  13
ENDBRANCH   1   3
BRANCH   1  24
ATOM     24  C   UNL     1       2.800   0.598  -0.503  1.00  0.00     0.118 C 
BRANCH  24  25
ATOM     25  C   UNL     1       3.765  -0.508  -0.073  1.00  0.00     0.042 C 
BRANCH  25  26
ATOM     26  C   UNL     1       4.133  -0.469   1.409  1.00  0.00     0.117 C 
BRANCH  26  27
ATOM     27  N   UNL     1       4.811   0.749   1.807  1.00  0.00    -0.359 N 
ATOM     28  C   UNL     1       6.129   0.983   1.517  1.00  0.00     0.337 C 
ATOM     29  H   UNL     1       4.297   1.433   2.346  1.00  0.00     0.163 HD
ATOM     30  O   UNL     1       6.865   0.241   0.883  1.00  0.00    -0.279 OA
ENDBRANCH  26  27
ENDBRANCH  25  26
ENDBRANCH  24  25
ENDBRANCH   1  24
TORSDOF 8
