_i0
     RDKit          3D

 44 46  0  0  0  0  0  0  0  0999 V2000
    0.8089   -3.9735   -2.4837 C   0  0  0  0  0  0  0  0  0  0  0  0
   -0.3124   -3.1751   -2.0558 N   0  0  0  0  0  0  0  0  0  0  0  0
   -1.5706   -3.5816   -2.3454 N   0  0  0  0  0  0  0  0  0  0  0  0
   -2.3334   -2.6263   -1.8037 C   0  0  0  0  0  0  0  0  0  0  0  0
   -1.5808   -1.6119   -1.1749 C   0  0  0  0  0  0  0  0  0  0  0  0
   -1.8056   -0.4191   -0.4760 C   0  0  0  0  0  0  0  0  0  0  0  0
   -3.0989    0.0705   -0.2479 N   0  0  0  0  0  0  0  0  0  0  0  0
   -3.6496    1.2017    0.3942 C   0  0  0  0  0  0  0  0  0  0  0  0
   -5.0302    1.4234    0.1991 C   0  0  0  0  0  0  0  0  0  0  0  0
   -5.6870    2.5188    0.7681 C   0  0  0  0  0  0  0  0  0  0  0  0
   -7.3725    2.7372    0.4963 Cl  0  0  0  0  0  0  0  0  0  0  0  0
   -4.9905    3.4307    1.5479 C   0  0  0  0  0  0  0  0  0  0  0  0
   -3.6286    3.2399    1.7550 C   0  0  0  0  0  0  0  0  0  0  0  0
   -2.9699    2.1440    1.1840 C   0  0  0  0  0  0  0  0  0  0  0  0
   -1.6406    2.0760    1.4867 O   0  0  0  0  0  0  0  0  0  0  0  0
   -0.7070    0.2495   -0.0362 N   0  0  0  0  0  0  0  0  0  0  0  0
    0.5345   -0.2208   -0.2770 C   0  0  0  0  0  0  0  0  0  0  0  0
    1.5508    0.5690    0.2436 N   0  0  0  0  0  0  0  0  0  0  0  0
    2.8002    0.5980   -0.5033 C   0  0  0  0  0  0  0  0  0  0  0  0
    3.7649   -0.5078   -0.0731 C   0  0  0  0  0  0  0  0  0  0  0  0
    4.1328   -0.4691    1.4094 C   0  0  0  0  0  0  0  0  0  0  0  0
    4.8112    0.7485    1.8066 N   0  0  0  0  0  0  0  0  0  0  0  0
    6.1293    0.9828    1.5170 C   0  0  0  0  0  0  0  0  0  0  0  0
    6.8647    0.2411    0.8829 O   0  0  0  0  0  0  0  0  0  0  0  0
    0.8229   -1.3446   -0.9387 N   0  0  0  0  0  0  0  0  0  0  0  0
   -0.2680   -1.9981   -1.3598 C   0  0  0  0  0  0  0  0  0  0  0  0
    0.7874   -4.0389   -3.5744 H   0  0  0  0  0  0  0  0  0  0  0  0
    0.7128   -4.9673   -2.0390 H   0  0  0  0  0  0  0  0  0  0  0  0
    1.7437   -3.5115   -2.1583 H   0  0  0  0  0  0  0  0  0  0  0  0
   -3.4083   -2.7141   -1.8927 H   0  0  0  0  0  0  0  0  0  0  0  0
   -3.8056   -0.5237   -0.6640 H   0  0  0  0  0  0  0  0  0  0  0  0
   -5.6118    0.7361   -0.4110 H   0  0  0  0  0  0  0  0  0  0  0  0
   -5.4934    4.2834    1.9943 H   0  0  0  0  0  0  0  0  0  0  0  0
   -3.0683    3.9435    2.3661 H   0  0  0  0  0  0  0  0  0  0  0  0
   -1.2851    1.3038    1.0008 H   0  0  0  0  0  0  0  0  0  0  0  0
    1.1378    1.4830    0.4067 H   0  0  0  0  0  0  0  0  0  0  0  0
    3.2746    1.5711   -0.3283 H   0  0  0  0  0  0  0  0  0  0  0  0
    2.6212    0.5466   -1.5851 H   0  0  0  0  0  0  0  0  0  0  0  0
    3.3368   -1.4917   -0.2947 H   0  0  0  0  0  0  0  0  0  0  0  0
    4.6746   -0.4241   -0.6800 H   0  0  0  0  0  0  0  0  0  0  0  0
    3.2443   -0.5703    2.0410 H   0  0  0  0  0  0  0  0  0  0  0  0
    4.7958   -1.3122    1.6356 H   0  0  0  0  0  0  0  0  0  0  0  0
    4.2970    1.4335    2.3457 H   0  0  0  0  0  0  0  0  0  0  0  0
    6.4718    1.9497    1.9218 H   0  0  0  0  0  0  0  0  0  0  0  0
  1  2  1  0
  2  3  1  0
  3  4  2  0
  4  5  1  0
  5  6  2  0
  6  7  1  0
  7  8  1  0
  8  9  2  0
  9 10  1  0
 10 11  1  0
 10 12  2  0
 12 13  1  0
 13 14  2  0
 14 15  1  0
  6 16  1  0
 16 17  2  0
 17 18  1  0
 18 19  1  0
 19 20  1  0
 20 21  1  0
 21 22  1  0
 22 23  1  0
 23 24  2  0
 17 25  1  0
 25 26  2  0
 26  2  1  0
 26  5  1  0
 14  8  1  0
  1 27  1  0
  1 28  1  0
  1 29  1  0
  4 30  1  0
  7 31  1  0
  9 32  1  0
 12 33  1  0
 13 34  1  0
 15 35  1  0
 18 36  1  0
 19 37  1  0
 19 38  1  0
 20 39  1  0
 20 40  1  0
 21 41  1  0
 21 42  1  0
 22 43  1  0
 23 44  1  0
M  END
>  <ScrubInfo>  (1) 
{"isomerGroup": 0, "isomerId": 0, "confId": 0, "nr_conformers:": 1, "nr_isomers:": 9}

$$$$
_i1
     RDKit          3D

 44 46  0  0  0  0  0  0  0  0999 V2000
   -0.3344   -1.1071    0.1135 N   0  0  0  0  0  0  0  0  0  0  0  0
    0.8039   -0.3613    0.3078 C   0  0  0  0  0  0  0  0  0  0  0  0
    1.9310   -1.1326    0.4169 N   0  0  0  0  0  0  0  0  0  0  0  0
    3.2450   -0.5066    0.5130 C   0  0  0  0  0  0  0  0  0  0  0  0
    4.2985   -1.5689    0.8141 C   0  0  0  0  0  0  0  0  0  0  0  0
    5.6914   -0.9684    0.9934 C   0  0  0  0  0  0  0  0  0  0  0  0
    6.2052   -0.3294   -0.2008 N   0  0  0  0  0  0  0  0  0  0  0  0
    6.6320   -1.0516   -1.2860 C   0  0  0  0  0  0  0  0  0  0  0  0
    6.5698   -2.2662   -1.4010 O   0  0  0  0  0  0  0  0  0  0  0  0
    0.8085    0.9434    0.3951 N   0  0  0  0  0  0  0  0  0  0  0  0
   -0.4425    1.4653    0.2552 C   0  0  0  0  0  0  0  0  0  0  0  0
   -1.6407    0.7966    0.0527 C   0  0  0  0  0  0  0  0  0  0  0  0
   -2.6046    1.8194    0.0089 C   0  0  0  0  0  0  0  0  0  0  0  0
   -2.0726    3.0401    0.1483 N   0  0  0  0  0  0  0  0  0  0  0  0
   -0.7521    2.7954    0.3007 N   0  0  0  0  0  0  0  0  0  0  0  0
    0.1520    3.9003    0.4971 C   0  0  0  0  0  0  0  0  0  0  0  0
   -1.6244   -0.6503   -0.0295 C   0  0  0  0  0  0  0  0  0  0  0  0
   -2.6193   -1.4704   -0.1950 N   0  0  0  0  0  0  0  0  0  0  0  0
   -3.9301   -1.0176   -0.3988 C   0  0  0  0  0  0  0  0  0  0  0  0
   -4.3800   -0.6759   -1.6752 C   0  0  0  0  0  0  0  0  0  0  0  0
   -5.6990   -0.2562   -1.8547 C   0  0  0  0  0  0  0  0  0  0  0  0
   -6.2453    0.1814   -3.4270 Cl  0  0  0  0  0  0  0  0  0  0  0  0
   -6.5807   -0.1868   -0.7737 C   0  0  0  0  0  0  0  0  0  0  0  0
   -6.1465   -0.5541    0.4998 C   0  0  0  0  0  0  0  0  0  0  0  0
   -4.8341   -0.9769    0.6718 C   0  0  0  0  0  0  0  0  0  0  0  0
   -4.4336   -1.3654    1.9205 O   0  0  0  0  0  0  0  0  0  0  0  0
   -0.2485   -2.1092    0.1524 H   0  0  0  0  0  0  0  0  0  0  0  0
    1.9380   -1.9468   -0.1877 H   0  0  0  0  0  0  0  0  0  0  0  0
    3.4721    0.0028   -0.4303 H   0  0  0  0  0  0  0  0  0  0  0  0
    3.2438    0.2421    1.3140 H   0  0  0  0  0  0  0  0  0  0  0  0
    4.3045   -2.3190    0.0142 H   0  0  0  0  0  0  0  0  0  0  0  0
    4.0246   -2.1001    1.7345 H   0  0  0  0  0  0  0  0  0  0  0  0
    5.6874   -0.2169    1.7900 H   0  0  0  0  0  0  0  0  0  0  0  0
    6.3937   -1.7592    1.2808 H   0  0  0  0  0  0  0  0  0  0  0  0
    6.3743    0.6692   -0.1926 H   0  0  0  0  0  0  0  0  0  0  0  0
    7.0434   -0.4012   -2.0760 H   0  0  0  0  0  0  0  0  0  0  0  0
   -3.6763    1.7517   -0.1139 H   0  0  0  0  0  0  0  0  0  0  0  0
   -0.0932    4.3782    1.4489 H   0  0  0  0  0  0  0  0  0  0  0  0
    1.1842    3.5440    0.5150 H   0  0  0  0  0  0  0  0  0  0  0  0
    0.0210    4.6045   -0.3285 H   0  0  0  0  0  0  0  0  0  0  0  0
   -3.7019   -0.7359   -2.5213 H   0  0  0  0  0  0  0  0  0  0  0  0
   -7.6066    0.1417   -0.9188 H   0  0  0  0  0  0  0  0  0  0  0  0
   -6.8253   -0.5209    1.3470 H   0  0  0  0  0  0  0  0  0  0  0  0
   -3.5323   -1.7217    1.7976 H   0  0  0  0  0  0  0  0  0  0  0  0
  1  2  1  0
  2  3  1  0
  3  4  1  0
  4  5  1  0
  5  6  1  0
  6  7  1  0
  7  8  1  0
  8  9  2  0
  2 10  2  0
 10 11  1  0
 11 12  2  0
 12 13  1  0
 13 14  2  0
 14 15  1  0
 15 16  1  0
 12 17  1  0
 17 18  2  3
 18 19  1  0
 19 20  2  0
 20 21  1  0
 21 22  1  0
 21 23  2  0
 23 24  1  0
 24 25  2  0
 25 26  1  0
 17  1  1  0
 25 19  1  0
 15 11  1  0
  1 27  1  0
  3 28  1  0
  4 29  1  0
  4 30  1  0
  5 31  1  0
  5 32  1  0
  6 33  1  0
  6 34  1  0
  7 35  1  0
  8 36  1  0
 13 37  1  0
 16 38  1  0
 16 39  1  0
 16 40  1  0
 20 41  1  0
 23 42  1  0
 24 43  1  0
 26 44  1  0
M  END
>  <ScrubInfo>  (2) 
{"isomerGroup": 0, "isomerId": 1, "confId": 0, "nr_conformers:": 1, "nr_isomers:": 9}

$$$$
_i2
     RDKit          3D

 44 46  0  0  0  0  0  0  0  0999 V2000
   -0.1751   -0.3264    0.2780 N   0  0  0  0  0  0  0  0  0  0  0  0
    1.0545    0.0624    0.7679 C   0  0  0  0  0  0  0  0  0  0  0  0
    1.8666   -0.8150    1.4575 N   0  0  0  0  0  0  0  0  0  0  0  0
    3.0182   -1.4519    0.9145 C   0  0  0  0  0  0  0  0  0  0  0  0
    3.7519   -0.9471   -0.1636 C   0  0  0  0  0  0  0  0  0  0  0  0
    4.9166   -1.5955   -0.5839 C   0  0  0  0  0  0  0  0  0  0  0  0
    5.8037   -0.9684   -1.9195 Cl  0  0  0  0  0  0  0  0  0  0  0  0
    5.3744   -2.7414    0.0667 C   0  0  0  0  0  0  0  0  0  0  0  0
    4.6644   -3.2516    1.1520 C   0  0  0  0  0  0  0  0  0  0  0  0
    3.5034   -2.6030    1.5674 C   0  0  0  0  0  0  0  0  0  0  0  0
    2.7742   -3.0905    2.6229 O   0  0  0  0  0  0  0  0  0  0  0  0
    1.3588    1.3526    0.5927 C   0  0  0  0  0  0  0  0  0  0  0  0
    2.4378    2.2709    0.9660 C   0  0  0  0  0  0  0  0  0  0  0  0
    2.2287    3.4958    0.5519 N   0  0  0  0  0  0  0  0  0  0  0  0
    1.0158    3.4501   -0.1588 N   0  0  0  0  0  0  0  0  0  0  0  0
    0.3490    4.6884   -0.4798 C   0  0  0  0  0  0  0  0  0  0  0  0
    0.4006    2.2090   -0.1355 C   0  0  0  0  0  0  0  0  0  0  0  0
   -0.7373    1.8259   -0.6083 N   0  0  0  0  0  0  0  0  0  0  0  0
   -1.0316    0.4940   -0.4128 C   0  0  0  0  0  0  0  0  0  0  0  0
   -2.1285   -0.0109   -0.8823 N   0  0  0  0  0  0  0  0  0  0  0  0
   -2.9944    0.9083   -1.6378 C   0  0  0  0  0  0  0  0  0  0  0  0
   -4.2138    0.1473   -2.1665 C   0  0  0  0  0  0  0  0  0  0  0  0
   -5.1869   -0.2674   -1.0652 C   0  0  0  0  0  0  0  0  0  0  0  0
   -4.6019   -1.2379   -0.1687 N   0  0  0  0  0  0  0  0  0  0  0  0
   -5.3465   -1.9082    0.7613 C   0  0  0  0  0  0  0  0  0  0  0  0
   -6.5623   -1.8604    0.8776 O   0  0  0  0  0  0  0  0  0  0  0  0
   -0.4020   -1.3084    0.2913 H   0  0  0  0  0  0  0  0  0  0  0  0
    1.3415   -1.5318    1.9637 H   0  0  0  0  0  0  0  0  0  0  0  0
    3.4313   -0.0573   -0.6951 H   0  0  0  0  0  0  0  0  0  0  0  0
    6.2820   -3.2375   -0.2684 H   0  0  0  0  0  0  0  0  0  0  0  0
    5.0252   -4.1449    1.6523 H   0  0  0  0  0  0  0  0  0  0  0  0
    3.2673   -3.8254    3.0269 H   0  0  0  0  0  0  0  0  0  0  0  0
    3.3009    1.9265    1.5505 H   0  0  0  0  0  0  0  0  0  0  0  0
   -0.2478    5.0312    0.3708 H   0  0  0  0  0  0  0  0  0  0  0  0
   -0.3132    4.5628   -1.3424 H   0  0  0  0  0  0  0  0  0  0  0  0
    1.0770    5.4674   -0.7288 H   0  0  0  0  0  0  0  0  0  0  0  0
   -2.4493    1.3131   -2.4994 H   0  0  0  0  0  0  0  0  0  0  0  0
   -3.3277    1.7411   -1.0067 H   0  0  0  0  0  0  0  0  0  0  0  0
   -4.7478    0.7962   -2.8708 H   0  0  0  0  0  0  0  0  0  0  0  0
   -3.8845   -0.7380   -2.7244 H   0  0  0  0  0  0  0  0  0  0  0  0
   -6.0899   -0.7056   -1.5052 H   0  0  0  0  0  0  0  0  0  0  0  0
   -5.4967    0.5981   -0.4687 H   0  0  0  0  0  0  0  0  0  0  0  0
   -3.5915   -1.1922   -0.0573 H   0  0  0  0  0  0  0  0  0  0  0  0
   -4.7149   -2.5242    1.4227 H   0  0  0  0  0  0  0  0  0  0  0  0
  1  2  1  0
  2  3  1  0
  3  4  1  0
  4  5  2  0
  5  6  1  0
  6  7  1  0
  6  8  2  0
  8  9  1  0
  9 10  2  0
 10 11  1  0
  2 12  2  0
 12 13  1  0
 13 14  2  0
 14 15  1  0
 15 16  1  0
 15 17  1  0
 17 18  2  0
 18 19  1  0
 19 20  2  3
 20 21  1  0
 21 22  1  0
 22 23  1  0
 23 24  1  0
 24 25  1  0
 25 26  2  0
 19  1  1  0
 10  4  1  0
 17 12  1  0
  1 27  1  0
  3 28  1  0
  5 29  1  0
  8 30  1  0
  9 31  1  0
 11 32  1  0
 13 33  1  0
 16 34  1  0
 16 35  1  0
 16 36  1  0
 21 37  1  0
 21 38  1  0
 22 39  1  0
 22 40  1  0
 23 41  1  0
 23 42  1  0
 24 43  1  0
 25 44  1  0
M  END
>  <ScrubInfo>  (3) 
{"isomerGroup": 0, "isomerId": 2, "confId": 0, "nr_conformers:": 1, "nr_isomers:": 9}

$$$$
_i3
     RDKit          3D

 44 46  0  0  0  0  0  0  0  0999 V2000
    0.0613   -2.7309   -0.1845 N   0  0  0  0  0  0  0  0  0  0  0  0
    0.8018   -1.6034    0.1028 C   0  0  0  0  0  0  0  0  0  0  0  0
    2.0769   -1.6406   -0.1177 N   0  0  0  0  0  0  0  0  0  0  0  0
    2.8361   -0.4282    0.1997 C   0  0  0  0  0  0  0  0  0  0  0  0
    4.3066   -0.6965   -0.1201 C   0  0  0  0  0  0  0  0  0  0  0  0
    5.1913    0.5054    0.1881 C   0  0  0  0  0  0  0  0  0  0  0  0
    4.9511    1.6127   -0.7146 N   0  0  0  0  0  0  0  0  0  0  0  0
    5.3372    2.8891   -0.3962 C   0  0  0  0  0  0  0  0  0  0  0  0
    5.8209    3.2489    0.6666 O   0  0  0  0  0  0  0  0  0  0  0  0
    0.2158   -0.4537    0.6138 N   0  0  0  0  0  0  0  0  0  0  0  0
   -1.0725   -0.4339    0.8115 C   0  0  0  0  0  0  0  0  0  0  0  0
   -1.7527    0.6338    1.3321 N   0  0  0  0  0  0  0  0  0  0  0  0
   -2.4635    1.5709    0.5219 C   0  0  0  0  0  0  0  0  0  0  0  0
   -2.9870    1.2702   -0.7400 C   0  0  0  0  0  0  0  0  0  0  0  0
   -3.7373    2.2241   -1.4328 C   0  0  0  0  0  0  0  0  0  0  0  0
   -4.3628    1.8463   -2.9919 Cl  0  0  0  0  0  0  0  0  0  0  0  0
   -3.9907    3.4784   -0.8776 C   0  0  0  0  0  0  0  0  0  0  0  0
   -3.4915    3.7905    0.3856 C   0  0  0  0  0  0  0  0  0  0  0  0
   -2.7423    2.8376    1.0725 C   0  0  0  0  0  0  0  0  0  0  0  0
   -2.2251    3.1194    2.3110 O   0  0  0  0  0  0  0  0  0  0  0  0
   -1.8776   -1.6072    0.5625 C   0  0  0  0  0  0  0  0  0  0  0  0
   -3.2164   -1.9971    0.7119 C   0  0  0  0  0  0  0  0  0  0  0  0
   -3.4260   -3.2602    0.3067 N   0  0  0  0  0  0  0  0  0  0  0  0
   -2.1981   -3.6841   -0.0863 N   0  0  0  0  0  0  0  0  0  0  0  0
   -2.0429   -5.0294   -0.5774 C   0  0  0  0  0  0  0  0  0  0  0  0
   -1.2568   -2.7172    0.0619 C   0  0  0  0  0  0  0  0  0  0  0  0
    0.5980   -3.5144   -0.5312 H   0  0  0  0  0  0  0  0  0  0  0  0
    2.7383   -0.1776    1.2631 H   0  0  0  0  0  0  0  0  0  0  0  0
    2.4762    0.4151   -0.4015 H   0  0  0  0  0  0  0  0  0  0  0  0
    4.6517   -1.5529    0.4725 H   0  0  0  0  0  0  0  0  0  0  0  0
    4.4105   -0.9816   -1.1747 H   0  0  0  0  0  0  0  0  0  0  0  0
    5.0535    0.8403    1.2224 H   0  0  0  0  0  0  0  0  0  0  0  0
    6.2447    0.2272    0.0708 H   0  0  0  0  0  0  0  0  0  0  0  0
    4.7311    1.4138   -1.6824 H   0  0  0  0  0  0  0  0  0  0  0  0
    5.1600    3.5886   -1.2303 H   0  0  0  0  0  0  0  0  0  0  0  0
   -1.1364    1.2091    1.9102 H   0  0  0  0  0  0  0  0  0  0  0  0
   -2.8149    0.3050   -1.2056 H   0  0  0  0  0  0  0  0  0  0  0  0
   -4.5764    4.2129   -1.4248 H   0  0  0  0  0  0  0  0  0  0  0  0
   -3.6925    4.7684    0.8117 H   0  0  0  0  0  0  0  0  0  0  0  0
   -2.5235    4.0044    2.5821 H   0  0  0  0  0  0  0  0  0  0  0  0
   -4.0505   -1.4222    1.0934 H   0  0  0  0  0  0  0  0  0  0  0  0
   -1.0102   -5.1941   -0.8919 H   0  0  0  0  0  0  0  0  0  0  0  0
   -2.7143   -5.1656   -1.4290 H   0  0  0  0  0  0  0  0  0  0  0  0
   -2.3011   -5.7213    0.2281 H   0  0  0  0  0  0  0  0  0  0  0  0
  1  2  1  0
  2  3  2  3
  3  4  1  0
  4  5  1  0
  5  6  1  0
  6  7  1  0
  7  8  1  0
  8  9  2  0
  2 10  1  0
 10 11  2  0
 11 12  1  0
 12 13  1  0
 13 14  2  0
 14 15  1  0
 15 16  1  0
 15 17  2  0
 17 18  1  0
 18 19  2  0
 19 20  1  0
 11 21  1  0
 21 22  1  0
 22 23  2  0
 23 24  1  0
 24 25  1  0
 24 26  1  0
 26  1  1  0
 19 13  1  0
 26 21  2  0
  1 27  1  0
  4 28  1  0
  4 29  1  0
  5 30  1  0
  5 31  1  0
  6 32  1  0
  6 33  1  0
  7 34  1  0
  8 35  1  0
 12 36  1  0
 14 37  1  0
 17 38  1  0
 18 39  1  0
 20 40  1  0
 22 41  1  0
 25 42  1  0
 25 43  1  0
 25 44  1  0
M  END
>  <ScrubInfo>  (4) 
{"isomerGroup": 0, "isomerId": 3, "confId": 0, "nr_conformers:": 1, "nr_isomers:": 9}

$$$$
_i4
     RDKit          3D

 44 46  0  0  0  0  0  0  0  0999 V2000
   -2.9793   -4.0680    1.2392 N   0  0  0  0  0  0  0  0  0  0  0  0
   -3.1778   -2.7171    0.9736 C   0  0  0  0  0  0  0  0  0  0  0  0
   -2.0462   -2.0830    0.6407 C   0  0  0  0  0  0  0  0  0  0  0  0
   -1.6445   -0.7514    0.2528 C   0  0  0  0  0  0  0  0  0  0  0  0
   -2.4837    0.2376    0.1979 N   0  0  0  0  0  0  0  0  0  0  0  0
   -2.0044    1.5104   -0.1699 C   0  0  0  0  0  0  0  0  0  0  0  0
   -1.2139    2.2773    0.6882 C   0  0  0  0  0  0  0  0  0  0  0  0
   -0.7859    3.5436    0.2884 C   0  0  0  0  0  0  0  0  0  0  0  0
    0.2126    4.4742    1.3390 Cl  0  0  0  0  0  0  0  0  0  0  0  0
   -1.1494    4.0646   -0.9554 C   0  0  0  0  0  0  0  0  0  0  0  0
   -1.9566    3.3147   -1.8096 C   0  0  0  0  0  0  0  0  0  0  0  0
   -2.3801    2.0541   -1.4059 C   0  0  0  0  0  0  0  0  0  0  0  0
   -3.1949    1.3397   -2.2423 O   0  0  0  0  0  0  0  0  0  0  0  0
   -0.3196   -0.6298   -0.0612 N   0  0  0  0  0  0  0  0  0  0  0  0
    0.5154   -1.6231    0.0196 C   0  0  0  0  0  0  0  0  0  0  0  0
    1.8243   -1.4610   -0.3216 N   0  0  0  0  0  0  0  0  0  0  0  0
    2.4689   -0.1818   -0.5363 C   0  0  0  0  0  0  0  0  0  0  0  0
    2.7571    0.5014    0.8001 C   0  0  0  0  0  0  0  0  0  0  0  0
    3.6080    1.7597    0.6533 C   0  0  0  0  0  0  0  0  0  0  0  0
    2.9110    2.8359   -0.0161 N   0  0  0  0  0  0  0  0  0  0  0  0
    3.0384    3.0715   -1.3595 C   0  0  0  0  0  0  0  0  0  0  0  0
    3.7422    2.4322   -2.1274 O   0  0  0  0  0  0  0  0  0  0  0  0
    0.2047   -2.8893    0.4464 N   0  0  0  0  0  0  0  0  0  0  0  0
   -1.0217   -3.1276    0.7570 C   0  0  0  0  0  0  0  0  0  0  0  0
   -1.6066   -4.3080    1.2193 N   0  0  0  0  0  0  0  0  0  0  0  0
   -1.1262   -5.6010    0.7698 C   0  0  0  0  0  0  0  0  0  0  0  0
   -3.4821   -4.3976    2.0667 H   0  0  0  0  0  0  0  0  0  0  0  0
   -4.1699   -2.2957    1.0544 H   0  0  0  0  0  0  0  0  0  0  0  0
   -0.9322    1.8775    1.6569 H   0  0  0  0  0  0  0  0  0  0  0  0
   -0.8176    5.0530   -1.2615 H   0  0  0  0  0  0  0  0  0  0  0  0
   -2.2594    3.7071   -2.7757 H   0  0  0  0  0  0  0  0  0  0  0  0
   -3.3920    0.5218   -1.7436 H   0  0  0  0  0  0  0  0  0  0  0  0
    2.4175   -2.2345   -0.0521 H   0  0  0  0  0  0  0  0  0  0  0  0
    3.4069   -0.3583   -1.0743 H   0  0  0  0  0  0  0  0  0  0  0  0
    1.8462    0.4508   -1.1782 H   0  0  0  0  0  0  0  0  0  0  0  0
    1.8153    0.7488    1.3051 H   0  0  0  0  0  0  0  0  0  0  0  0
    3.2880   -0.2006    1.4557 H   0  0  0  0  0  0  0  0  0  0  0  0
    4.5395    1.5347    0.1222 H   0  0  0  0  0  0  0  0  0  0  0  0
    3.8736    2.1349    1.6474 H   0  0  0  0  0  0  0  0  0  0  0  0
    2.2541    3.3998    0.5126 H   0  0  0  0  0  0  0  0  0  0  0  0
    2.4164    3.9200   -1.6898 H   0  0  0  0  0  0  0  0  0  0  0  0
   -0.0545   -5.7036    0.9679 H   0  0  0  0  0  0  0  0  0  0  0  0
   -1.2982   -5.7284   -0.3041 H   0  0  0  0  0  0  0  0  0  0  0  0
   -1.6432   -6.4053    1.3031 H   0  0  0  0  0  0  0  0  0  0  0  0
  1  2  1  0
  2  3  2  0
  3  4  1  0
  4  5  2  3
  5  6  1  0
  6  7  2  0
  7  8  1  0
  8  9  1  0
  8 10  2  0
 10 11  1  0
 11 12  2  0
 12 13  1  0
  4 14  1  0
 14 15  2  0
 15 16  1  0
 16 17  1  0
 17 18  1  0
 18 19  1  0
 19 20  1  0
 20 21  1  0
 21 22  2  0
 15 23  1  0
 23 24  2  0
 24 25  1  0
 25 26  1  0
 25  1  1  0
 24  3  1  0
 12  6  1  0
  1 27  1  0
  2 28  1  0
  7 29  1  0
 10 30  1  0
 11 31  1  0
 13 32  1  0
 16 33  1  0
 17 34  1  0
 17 35  1  0
 18 36  1  0
 18 37  1  0
 19 38  1  0
 19 39  1  0
 20 40  1  0
 21 41  1  0
 26 42  1  0
 26 43  1  0
 26 44  1  0
M  END
>  <ScrubInfo>  (5) 
{"isomerGroup": 0, "isomerId": 4, "confId": 0, "nr_conformers:": 1, "nr_isomers:": 9}

$$$$
_i5
     RDKit          3D

 44 46  0  0  0  0  0  0  0  0999 V2000
    0.4832   -1.6585    0.5918 N   0  0  0  0  0  0  0  0  0  0  0  0
    0.9076   -0.3533    0.4895 C   0  0  0  0  0  0  0  0  0  0  0  0
    2.2588   -0.2458    0.7004 N   0  0  0  0  0  0  0  0  0  0  0  0
    2.8833    1.0753    0.7411 C   0  0  0  0  0  0  0  0  0  0  0  0
    4.4031    0.9405    0.7045 C   0  0  0  0  0  0  0  0  0  0  0  0
    4.8995    0.5090   -0.6744 C   0  0  0  0  0  0  0  0  0  0  0  0
    6.3412    0.3550   -0.7044 N   0  0  0  0  0  0  0  0  0  0  0  0
    7.1849    1.4305   -0.8090 C   0  0  0  0  0  0  0  0  0  0  0  0
    6.8438    2.6018   -0.8725 O   0  0  0  0  0  0  0  0  0  0  0  0
    0.1440    0.6629    0.2154 N   0  0  0  0  0  0  0  0  0  0  0  0
   -1.2221    0.4843    0.0310 C   0  0  0  0  0  0  0  0  0  0  0  0
   -1.9144    1.5632   -0.1495 N   0  0  0  0  0  0  0  0  0  0  0  0
   -3.3052    1.5547   -0.2936 C   0  0  0  0  0  0  0  0  0  0  0  0
   -3.8519    1.7897   -1.5578 C   0  0  0  0  0  0  0  0  0  0  0  0
   -5.2348    1.8413   -1.7230 C   0  0  0  0  0  0  0  0  0  0  0  0
   -5.8992    2.1154   -3.2867 Cl  0  0  0  0  0  0  0  0  0  0  0  0
   -6.0881    1.6739   -0.6320 C   0  0  0  0  0  0  0  0  0  0  0  0
   -5.5562    1.4593    0.6403 C   0  0  0  0  0  0  0  0  0  0  0  0
   -4.1717    1.4077    0.8044 C   0  0  0  0  0  0  0  0  0  0  0  0
   -3.6406    1.1875    2.0471 O   0  0  0  0  0  0  0  0  0  0  0  0
   -1.6987   -0.8889    0.0373 C   0  0  0  0  0  0  0  0  0  0  0  0
   -2.8989   -1.5764   -0.2172 C   0  0  0  0  0  0  0  0  0  0  0  0
   -2.7767   -2.9080   -0.0898 N   0  0  0  0  0  0  0  0  0  0  0  0
   -1.4786   -3.0780    0.2477 N   0  0  0  0  0  0  0  0  0  0  0  0
   -0.9819   -4.4117    0.4698 C   0  0  0  0  0  0  0  0  0  0  0  0
   -0.8126   -1.8969    0.3230 C   0  0  0  0  0  0  0  0  0  0  0  0
    1.1935   -2.3767    0.5693 H   0  0  0  0  0  0  0  0  0  0  0  0
    2.5758   -0.8333    1.4629 H   0  0  0  0  0  0  0  0  0  0  0  0
    2.5472    1.6933   -0.0998 H   0  0  0  0  0  0  0  0  0  0  0  0
    2.5865    1.5782    1.6687 H   0  0  0  0  0  0  0  0  0  0  0  0
    4.8476    1.9089    0.9641 H   0  0  0  0  0  0  0  0  0  0  0  0
    4.7435    0.2261    1.4646 H   0  0  0  0  0  0  0  0  0  0  0  0
    4.4723   -0.4573   -0.9613 H   0  0  0  0  0  0  0  0  0  0  0  0
    4.6133    1.2484   -1.4311 H   0  0  0  0  0  0  0  0  0  0  0  0
    6.7402   -0.5726   -0.6454 H   0  0  0  0  0  0  0  0  0  0  0  0
    8.2432    1.1209   -0.8246 H   0  0  0  0  0  0  0  0  0  0  0  0
   -3.1881    1.9387   -2.4049 H   0  0  0  0  0  0  0  0  0  0  0  0
   -7.1660    1.7152   -0.7670 H   0  0  0  0  0  0  0  0  0  0  0  0
   -6.2284    1.3323    1.4832 H   0  0  0  0  0  0  0  0  0  0  0  0
   -4.3446    1.2506    2.7112 H   0  0  0  0  0  0  0  0  0  0  0  0
   -3.8648   -1.1846   -0.5025 H   0  0  0  0  0  0  0  0  0  0  0  0
   -1.6725   -4.9353    1.1360 H   0  0  0  0  0  0  0  0  0  0  0  0
   -0.9233   -4.9197   -0.4959 H   0  0  0  0  0  0  0  0  0  0  0  0
    0.0068   -4.3676    0.9315 H   0  0  0  0  0  0  0  0  0  0  0  0
  1  2  1  0
  2  3  1  0
  3  4  1  0
  4  5  1  0
  5  6  1  0
  6  7  1  0
  7  8  1  0
  8  9  2  0
  2 10  2  0
 10 11  1  0
 11 12  2  3
 12 13  1  0
 13 14  2  0
 14 15  1  0
 15 16  1  0
 15 17  2  0
 17 18  1  0
 18 19  2  0
 19 20  1  0
 11 21  1  0
 21 22  1  0
 22 23  2  0
 23 24  1  0
 24 25  1  0
 24 26  1  0
 26  1  1  0
 19 13  1  0
 26 21  2  0
  1 27  1  0
  3 28  1  0
  4 29  1  0
  4 30  1  0
  5 31  1  0
  5 32  1  0
  6 33  1  0
  6 34  1  0
  7 35  1  0
  8 36  1  0
 14 37  1  0
 17 38  1  0
 18 39  1  0
 20 40  1  0
 22 41  1  0
 25 42  1  0
 25 43  1  0
 25 44  1  0
M  END
>  <ScrubInfo>  (6) 
{"isomerGroup": 0, "isomerId": 5, "confId": 0, "nr_conformers:": 1, "nr_isomers:": 9}

$$$$
_i6
     RDKit          3D

 44 46  0  0  0  0  0  0  0  0999 V2000
   -3.0130    2.7511    1.4865 N   0  0  0  0  0  0  0  0  0  0  0  0
   -2.8418    1.3725    1.4062 C   0  0  0  0  0  0  0  0  0  0  0  0
   -1.5672    1.0126    1.2033 C   0  0  0  0  0  0  0  0  0  0  0  0
   -0.7770   -0.2053    1.0261 C   0  0  0  0  0  0  0  0  0  0  0  0
   -1.3052   -1.4816    1.0755 N   0  0  0  0  0  0  0  0  0  0  0  0
   -2.4946   -1.8524    0.3967 C   0  0  0  0  0  0  0  0  0  0  0  0
   -3.3274   -2.8012    1.0043 C   0  0  0  0  0  0  0  0  0  0  0  0
   -4.4760   -3.2517    0.3533 C   0  0  0  0  0  0  0  0  0  0  0  0
   -5.5044   -4.3923    1.1288 Cl  0  0  0  0  0  0  0  0  0  0  0  0
   -4.7960   -2.7895   -0.9218 C   0  0  0  0  0  0  0  0  0  0  0  0
   -3.9533   -1.8798   -1.5607 C   0  0  0  0  0  0  0  0  0  0  0  0
   -2.8040   -1.4304   -0.9089 C   0  0  0  0  0  0  0  0  0  0  0  0
   -1.9507   -0.5798   -1.5553 O   0  0  0  0  0  0  0  0  0  0  0  0
    0.5129   -0.0890    0.8498 N   0  0  0  0  0  0  0  0  0  0  0  0
    1.0609    1.1774    0.7783 C   0  0  0  0  0  0  0  0  0  0  0  0
    2.3058    1.3100    0.4810 N   0  0  0  0  0  0  0  0  0  0  0  0
    3.0809    0.0997    0.2264 C   0  0  0  0  0  0  0  0  0  0  0  0
    4.5028    0.5133   -0.1549 C   0  0  0  0  0  0  0  0  0  0  0  0
    5.4314   -0.6874   -0.3172 C   0  0  0  0  0  0  0  0  0  0  0  0
    5.0734   -1.5272   -1.4426 N   0  0  0  0  0  0  0  0  0  0  0  0
    5.5371   -1.2845   -2.7096 C   0  0  0  0  0  0  0  0  0  0  0  0
    6.3232   -0.4075   -3.0338 O   0  0  0  0  0  0  0  0  0  0  0  0
    0.4171    2.3707    1.0022 N   0  0  0  0  0  0  0  0  0  0  0  0
   -0.8494    2.3037    1.2195 C   0  0  0  0  0  0  0  0  0  0  0  0
   -1.7501    3.3349    1.4889 N   0  0  0  0  0  0  0  0  0  0  0  0
   -1.5721    4.6497    0.9038 C   0  0  0  0  0  0  0  0  0  0  0  0
   -3.6371    3.0377    2.2441 H   0  0  0  0  0  0  0  0  0  0  0  0
   -3.7028    0.7293    1.5145 H   0  0  0  0  0  0  0  0  0  0  0  0
   -0.5712   -2.1446    0.8351 H   0  0  0  0  0  0  0  0  0  0  0  0
   -3.0850   -3.1751    1.9962 H   0  0  0  0  0  0  0  0  0  0  0  0
   -5.6908   -3.1447   -1.4270 H   0  0  0  0  0  0  0  0  0  0  0  0
   -4.2000   -1.5444   -2.5638 H   0  0  0  0  0  0  0  0  0  0  0  0
   -2.2964   -0.3749   -2.4399 H   0  0  0  0  0  0  0  0  0  0  0  0
    2.6381   -0.4787   -0.5933 H   0  0  0  0  0  0  0  0  0  0  0  0
    3.1149   -0.5271    1.1260 H   0  0  0  0  0  0  0  0  0  0  0  0
    4.9090    1.1671    0.6272 H   0  0  0  0  0  0  0  0  0  0  0  0
    4.4792    1.1050   -1.0785 H   0  0  0  0  0  0  0  0  0  0  0  0
    6.4593   -0.3345   -0.4570 H   0  0  0  0  0  0  0  0  0  0  0  0
    5.4122   -1.3171    0.5785 H   0  0  0  0  0  0  0  0  0  0  0  0
    4.3693   -2.2418   -1.3152 H   0  0  0  0  0  0  0  0  0  0  0  0
    5.1156   -1.9954   -3.4397 H   0  0  0  0  0  0  0  0  0  0  0  0
   -0.5809    5.0478    1.1436 H   0  0  0  0  0  0  0  0  0  0  0  0
   -1.6799    4.6087   -0.1851 H   0  0  0  0  0  0  0  0  0  0  0  0
   -2.3170    5.3469    1.3010 H   0  0  0  0  0  0  0  0  0  0  0  0
  1  2  1  0
  2  3  2  0
  3  4  1  0
  4  5  1  0
  5  6  1  0
  6  7  2  0
  7  8  1  0
  8  9  1  0
  8 10  2  0
 10 11  1  0
 11 12  2  0
 12 13  1  0
  4 14  2  0
 14 15  1  0
 15 16  2  3
 16 17  1  0
 17 18  1  0
 18 19  1  0
 19 20  1  0
 20 21  1  0
 21 22  2  0
 15 23  1  0
 23 24  2  0
 24 25  1  0
 25 26  1  0
 25  1  1  0
 24  3  1  0
 12  6  1  0
  1 27  1  0
  2 28  1  0
  5 29  1  0
  7 30  1  0
 10 31  1  0
 11 32  1  0
 13 33  1  0
 17 34  1  0
 17 35  1  0
 18 36  1  0
 18 37  1  0
 19 38  1  0
 19 39  1  0
 20 40  1  0
 21 41  1  0
 26 42  1  0
 26 43  1  0
 26 44  1  0
M  END
>  <ScrubInfo>  (7) 
{"isomerGroup": 0, "isomerId": 6, "confId": 0, "nr_conformers:": 1, "nr_isomers:": 9}

$$$$
_i7
     RDKit          3D

 44 46  0  0  0  0  0  0  0  0999 V2000
   -0.0140   -2.3341   -0.0761 N   0  0  0  0  0  0  0  0  0  0  0  0
    0.9462   -1.3437   -0.0703 C   0  0  0  0  0  0  0  0  0  0  0  0
    2.1826   -1.6921   -0.2094 N   0  0  0  0  0  0  0  0  0  0  0  0
    3.1841   -0.6248   -0.1969 C   0  0  0  0  0  0  0  0  0  0  0  0
    4.5657   -1.2531   -0.3662 C   0  0  0  0  0  0  0  0  0  0  0  0
    5.6985   -0.2441   -0.1913 C   0  0  0  0  0  0  0  0  0  0  0  0
    5.7838    0.7130   -1.2760 N   0  0  0  0  0  0  0  0  0  0  0  0
    5.1237    1.9139   -1.2545 C   0  0  0  0  0  0  0  0  0  0  0  0
    4.3840    2.3050   -0.3632 O   0  0  0  0  0  0  0  0  0  0  0  0
    0.4217   -0.0735    0.0892 N   0  0  0  0  0  0  0  0  0  0  0  0
   -0.8837    0.3581    0.2263 C   0  0  0  0  0  0  0  0  0  0  0  0
   -1.1554    1.6261    0.3324 N   0  0  0  0  0  0  0  0  0  0  0  0
   -2.4693    2.1063    0.4109 C   0  0  0  0  0  0  0  0  0  0  0  0
   -3.2240    2.3279   -0.7421 C   0  0  0  0  0  0  0  0  0  0  0  0
   -4.5207    2.8325   -0.6335 C   0  0  0  0  0  0  0  0  0  0  0  0
   -5.4562    3.0862   -2.0557 Cl  0  0  0  0  0  0  0  0  0  0  0  0
   -5.0689    3.1331    0.6156 C   0  0  0  0  0  0  0  0  0  0  0  0
   -4.3099    2.9423    1.7702 C   0  0  0  0  0  0  0  0  0  0  0  0
   -3.0174    2.4457    1.6556 C   0  0  0  0  0  0  0  0  0  0  0  0
   -2.2724    2.2967    2.7929 O   0  0  0  0  0  0  0  0  0  0  0  0
   -1.8110   -0.7610    0.2350 C   0  0  0  0  0  0  0  0  0  0  0  0
   -3.1951   -0.9611    0.3955 C   0  0  0  0  0  0  0  0  0  0  0  0
   -3.5481   -2.2530    0.3207 N   0  0  0  0  0  0  0  0  0  0  0  0
   -2.3777   -2.8963    0.1190 N   0  0  0  0  0  0  0  0  0  0  0  0
   -2.3741   -4.3328    0.0027 C   0  0  0  0  0  0  0  0  0  0  0  0
   -1.3217   -2.0397    0.0767 C   0  0  0  0  0  0  0  0  0  0  0  0
    0.3565   -3.2714   -0.1810 H   0  0  0  0  0  0  0  0  0  0  0  0
    3.1438   -0.0802    0.7539 H   0  0  0  0  0  0  0  0  0  0  0  0
    2.9923    0.0705   -1.0212 H   0  0  0  0  0  0  0  0  0  0  0  0
    4.6904   -2.0473    0.3808 H   0  0  0  0  0  0  0  0  0  0  0  0
    4.6345   -1.7338   -1.3501 H   0  0  0  0  0  0  0  0  0  0  0  0
    5.5948    0.2917    0.7589 H   0  0  0  0  0  0  0  0  0  0  0  0
    6.6565   -0.7747   -0.1724 H   0  0  0  0  0  0  0  0  0  0  0  0
    6.3320    0.4755   -2.0931 H   0  0  0  0  0  0  0  0  0  0  0  0
    5.3214    2.5073   -2.1629 H   0  0  0  0  0  0  0  0  0  0  0  0
    1.0837    0.6891    0.0760 H   0  0  0  0  0  0  0  0  0  0  0  0
   -2.7997    2.1049   -1.7165 H   0  0  0  0  0  0  0  0  0  0  0  0
   -6.0795    3.5255    0.6945 H   0  0  0  0  0  0  0  0  0  0  0  0
   -4.7160    3.1883    2.7469 H   0  0  0  0  0  0  0  0  0  0  0  0
   -1.3746    2.0714    2.4781 H   0  0  0  0  0  0  0  0  0  0  0  0
   -3.9792   -0.2377    0.5703 H   0  0  0  0  0  0  0  0  0  0  0  0
   -2.3548   -4.7553    1.0101 H   0  0  0  0  0  0  0  0  0  0  0  0
   -3.2776   -4.6485   -0.5258 H   0  0  0  0  0  0  0  0  0  0  0  0
   -1.4951   -4.6525   -0.5613 H   0  0  0  0  0  0  0  0  0  0  0  0
  1  2  1  0
  2  3  2  3
  3  4  1  0
  4  5  1  0
  5  6  1  0
  6  7  1  0
  7  8  1  0
  8  9  2  0
  2 10  1  0
 10 11  1  0
 11 12  2  3
 12 13  1  0
 13 14  2  0
 14 15  1  0
 15 16  1  0
 15 17  2  0
 17 18  1  0
 18 19  2  0
 19 20  1  0
 11 21  1  0
 21 22  1  0
 22 23  2  0
 23 24  1  0
 24 25  1  0
 24 26  1  0
 26  1  1  0
 19 13  1  0
 26 21  2  0
  1 27  1  0
  4 28  1  0
  4 29  1  0
  5 30  1  0
  5 31  1  0
  6 32  1  0
  6 33  1  0
  7 34  1  0
  8 35  1  0
 10 36  1  0
 14 37  1  0
 17 38  1  0
 18 39  1  0
 20 40  1  0
 22 41  1  0
 25 42  1  0
 25 43  1  0
 25 44  1  0
M  END
>  <ScrubInfo>  (8) 
{"isomerGroup": 0, "isomerId": 7, "confId": 0, "nr_conformers:": 1, "nr_isomers:": 9}

$$$$
_i8
     RDKit          3D

 44 46  0  0  0  0  0  0  0  0999 V2000
   -2.6968   -4.3995    0.0654 N   0  0  0  0  0  0  0  0  0  0  0  0
   -2.9535   -3.0355   -0.0157 C   0  0  0  0  0  0  0  0  0  0  0  0
   -1.8381   -2.2959   -0.0075 C   0  0  0  0  0  0  0  0  0  0  0  0
   -1.4660   -0.8836   -0.1003 C   0  0  0  0  0  0  0  0  0  0  0  0
   -2.4033    0.0175   -0.1667 N   0  0  0  0  0  0  0  0  0  0  0  0
   -2.0445    1.3762   -0.2205 C   0  0  0  0  0  0  0  0  0  0  0  0
   -1.5490    2.0506    0.8969 C   0  0  0  0  0  0  0  0  0  0  0  0
   -1.1978    3.3971    0.7912 C   0  0  0  0  0  0  0  0  0  0  0  0
   -0.5323    4.2104    2.1545 Cl  0  0  0  0  0  0  0  0  0  0  0  0
   -1.3553    4.0861   -0.4134 C   0  0  0  0  0  0  0  0  0  0  0  0
   -1.8710    3.4243   -1.5271 C   0  0  0  0  0  0  0  0  0  0  0  0
   -2.2154    2.0831   -1.4172 C   0  0  0  0  0  0  0  0  0  0  0  0
   -2.7358    1.4481   -2.5108 O   0  0  0  0  0  0  0  0  0  0  0  0
   -0.1049   -0.6981   -0.1082 N   0  0  0  0  0  0  0  0  0  0  0  0
    0.8575   -1.6763    0.0053 C   0  0  0  0  0  0  0  0  0  0  0  0
    2.1292   -1.4939    0.0203 N   0  0  0  0  0  0  0  0  0  0  0  0
    2.7052   -0.1577   -0.1040 C   0  0  0  0  0  0  0  0  0  0  0  0
    2.8134    0.4797    1.2810 C   0  0  0  0  0  0  0  0  0  0  0  0
    3.4727    1.8552    1.2542 C   0  0  0  0  0  0  0  0  0  0  0  0
    2.5696    2.9013    0.8146 N   0  0  0  0  0  0  0  0  0  0  0  0
    2.5254    3.3418   -0.4815 C   0  0  0  0  0  0  0  0  0  0  0  0
    3.1546    2.8716   -1.4167 O   0  0  0  0  0  0  0  0  0  0  0  0
    0.5077   -3.0057    0.1406 N   0  0  0  0  0  0  0  0  0  0  0  0
   -0.7509   -3.3088    0.1489 C   0  0  0  0  0  0  0  0  0  0  0  0
   -1.3326   -4.5712    0.2893 N   0  0  0  0  0  0  0  0  0  0  0  0
   -0.6728   -5.7557   -0.2267 C   0  0  0  0  0  0  0  0  0  0  0  0
   -3.3222   -4.8949    0.7051 H   0  0  0  0  0  0  0  0  0  0  0  0
   -3.9748   -2.6871   -0.0759 H   0  0  0  0  0  0  0  0  0  0  0  0
   -1.4398    1.5243    1.8409 H   0  0  0  0  0  0  0  0  0  0  0  0
   -1.0870    5.1367   -0.4909 H   0  0  0  0  0  0  0  0  0  0  0  0
   -2.0100    3.9474   -2.4691 H   0  0  0  0  0  0  0  0  0  0  0  0
   -2.9980    0.5627   -2.1865 H   0  0  0  0  0  0  0  0  0  0  0  0
    0.2294    0.2427   -0.2271 H   0  0  0  0  0  0  0  0  0  0  0  0
    3.7073   -0.2639   -0.5358 H   0  0  0  0  0  0  0  0  0  0  0  0
    2.1442    0.4673   -0.8049 H   0  0  0  0  0  0  0  0  0  0  0  0
    1.8238    0.5467    1.7492 H   0  0  0  0  0  0  0  0  0  0  0  0
    3.4153   -0.1812    1.9178 H   0  0  0  0  0  0  0  0  0  0  0  0
    4.3702    1.8502    0.6261 H   0  0  0  0  0  0  0  0  0  0  0  0
    3.7779    2.1280    2.2703 H   0  0  0  0  0  0  0  0  0  0  0  0
    2.0173    3.3917    1.5093 H   0  0  0  0  0  0  0  0  0  0  0  0
    1.8277    4.1863   -0.6046 H   0  0  0  0  0  0  0  0  0  0  0  0
    0.3375   -5.8450    0.1851 H   0  0  0  0  0  0  0  0  0  0  0  0
   -0.6049   -5.7181   -1.3190 H   0  0  0  0  0  0  0  0  0  0  0  0
   -1.2294   -6.6550    0.0564 H   0  0  0  0  0  0  0  0  0  0  0  0
  1  2  1  0
  2  3  2  0
  3  4  1  0
  4  5  2  3
  5  6  1  0
  6  7  2  0
  7  8  1  0
  8  9  1  0
  8 10  2  0
 10 11  1  0
 11 12  2  0
 12 13  1  0
  4 14  1  0
 14 15  1  0
 15 16  2  3
 16 17  1  0
 17 18  1  0
 18 19  1  0
 19 20  1  0
 20 21  1  0
 21 22  2  0
 15 23  1  0
 23 24  2  0
 24 25  1  0
 25 26  1  0
 25  1  1  0
 24  3  1  0
 12  6  1  0
  1 27  1  0
  2 28  1  0
  7 29  1  0
 10 30  1  0
 11 31  1  0
 13 32  1  0
 14 33  1  0
 17 34  1  0
 17 35  1  0
 18 36  1  0
 18 37  1  0
 19 38  1  0
 19 39  1  0
 20 40  1  0
 21 41  1  0
 26 42  1  0
 26 43  1  0
 26 44  1  0
M  END
>  <ScrubInfo>  (9) 
{"isomerGroup": 0, "isomerId": 8, "confId": 0, "nr_conformers:": 1, "nr_isomers:": 9}

$$$$
