REMARK SMILES CCCCNc1nc(Nc2ccc(F)c(F)c2F)c2cnn(C)c2n1
REMARK SMILES IDX 5 1 4 3 3 4 2 5 1 6 6 7 7 8 25 9 8 10 24 11 19 12 22 13
REMARK SMILES IDX 20 14 21 15 23 16 9 17 10 19 11 20 17 21 12 22 15 23 13 24
REMARK SMILES IDX 18 25 16 26 14 27
REMARK H PARENT 5 2 9 18
ROOT
ATOM      1  N   UNL     1      -2.324  -0.636  -0.463  1.00  0.00    -0.354 N 
ATOM      2  H   UNL     1      -2.069  -1.510  -0.910  1.00  0.00     0.163 HD
ENDROOT
BRANCH   1   3
ATOM      3  C   UNL     1      -3.185  -0.759   0.699  1.00  0.00     0.116 C 
BRANCH   3   4
ATOM      4  C   UNL     1      -4.429  -1.586   0.360  1.00  0.00     0.021 C 
BRANCH   4   5
ATOM      5  C   UNL     1      -5.530  -0.813  -0.375  1.00  0.00    -0.002 C 
ATOM      6  C   UNL     1      -5.159  -0.377  -1.783  1.00  0.00     0.004 C 
ENDBRANCH   4   5
ENDBRANCH   3   4
ENDBRANCH   1   3
BRANCH   1   7
ATOM      7  C   UNL     1      -1.127   0.034  -0.235  1.00  0.00     0.226 A 
ATOM      8  N   UNL     1      -0.084  -0.433  -0.948  1.00  0.00    -0.195 NA
ATOM      9  N   UNL     1      -1.089   1.052   0.636  1.00  0.00    -0.193 NA
ATOM     10  C   UNL     1       1.141   0.133  -0.808  1.00  0.00     0.147 A 
ATOM     11  C   UNL     1       0.126   1.611   0.732  1.00  0.00     0.165 A 
ATOM     12  C   UNL     1       1.265   1.221   0.056  1.00  0.00     0.082 A 
ATOM     13  N   UNL     1       0.493   2.679   1.504  1.00  0.00    -0.250 N 
ATOM     14  C   UNL     1       2.254   2.131   0.481  1.00  0.00     0.149 A 
ATOM     15  N   UNL     1       1.795   3.025   1.365  1.00  0.00    -0.179 NA
ATOM     16  C   UNL     1      -0.351   3.436   2.392  1.00  0.00     0.176 C 
BRANCH  10  17
ATOM     17  N   UNL     1       2.176  -0.395  -1.601  1.00  0.00    -0.337 N 
ATOM     18  H   UNL     1       1.757  -1.183  -2.094  1.00  0.00     0.168 HD
BRANCH  17  19
ATOM     19  C   UNL     1       3.488  -0.715  -1.177  1.00  0.00     0.079 A 
ATOM     20  C   UNL     1       4.496  -0.764  -2.154  1.00  0.00     0.032 A 
ATOM     21  C   UNL     1       3.817  -1.096   0.135  1.00  0.00     0.185 A 
ATOM     22  C   UNL     1       5.803  -1.127  -1.818  1.00  0.00     0.045 A 
ATOM     23  C   UNL     1       5.118  -1.458   0.470  1.00  0.00     0.196 A 
ATOM     24  C   UNL     1       6.105  -1.467  -0.505  1.00  0.00     0.162 A 
ATOM     25  F   UNL     1       2.872  -1.139   1.087  1.00  0.00    -0.201 F 
ATOM     26  F   UNL     1       5.414  -1.811   1.729  1.00  0.00    -0.200 F 
ATOM     27  F   UNL     1       7.360  -1.817  -0.191  1.00  0.00    -0.204 F 
ENDBRANCH  17  19
ENDBRANCH  10  17
ENDBRANCH   1   7
TORSDOF 6
