_i0
     RDKit          3D

 42 44  0  0  0  0  0  0  0  0999 V2000
   -5.1593   -0.3765   -1.7828 C   0  0  0  0  0  0  0  0  0  0  0  0
   -5.5296   -0.8130   -0.3748 C   0  0  0  0  0  0  0  0  0  0  0  0
   -4.4291   -1.5861    0.3600 C   0  0  0  0  0  0  0  0  0  0  0  0
   -3.1848   -0.7593    0.6993 C   0  0  0  0  0  0  0  0  0  0  0  0
   -2.3239   -0.6361   -0.4634 N   0  0  0  0  0  0  0  0  0  0  0  0
   -1.1271    0.0337   -0.2349 C   0  0  0  0  0  0  0  0  0  0  0  0
   -0.0839   -0.4326   -0.9484 N   0  0  0  0  0  0  0  0  0  0  0  0
    1.1407    0.1326   -0.8080 C   0  0  0  0  0  0  0  0  0  0  0  0
    2.1765   -0.3947   -1.6008 N   0  0  0  0  0  0  0  0  0  0  0  0
    3.4876   -0.7153   -1.1768 C   0  0  0  0  0  0  0  0  0  0  0  0
    4.4958   -0.7639   -2.1541 C   0  0  0  0  0  0  0  0  0  0  0  0
    5.8034   -1.1265   -1.8184 C   0  0  0  0  0  0  0  0  0  0  0  0
    6.1053   -1.4670   -0.5046 C   0  0  0  0  0  0  0  0  0  0  0  0
    7.3597   -1.8175   -0.1909 F   0  0  0  0  0  0  0  0  0  0  0  0
    5.1180   -1.4580    0.4697 C   0  0  0  0  0  0  0  0  0  0  0  0
    5.4141   -1.8111    1.7288 F   0  0  0  0  0  0  0  0  0  0  0  0
    3.8172   -1.0961    0.1353 C   0  0  0  0  0  0  0  0  0  0  0  0
    2.8723   -1.1392    1.0872 F   0  0  0  0  0  0  0  0  0  0  0  0
    1.2651    1.2211    0.0564 C   0  0  0  0  0  0  0  0  0  0  0  0
    2.2540    2.1314    0.4807 C   0  0  0  0  0  0  0  0  0  0  0  0
    1.7948    3.0249    1.3652 N   0  0  0  0  0  0  0  0  0  0  0  0
    0.4931    2.6790    1.5035 N   0  0  0  0  0  0  0  0  0  0  0  0
   -0.3512    3.4363    2.3924 C   0  0  0  0  0  0  0  0  0  0  0  0
    0.1262    1.6107    0.7317 C   0  0  0  0  0  0  0  0  0  0  0  0
   -1.0890    1.0521    0.6357 N   0  0  0  0  0  0  0  0  0  0  0  0
   -4.3984    0.4088   -1.7722 H   0  0  0  0  0  0  0  0  0  0  0  0
   -6.0394    0.0303   -2.2916 H   0  0  0  0  0  0  0  0  0  0  0  0
   -4.7872   -1.2194   -2.3735 H   0  0  0  0  0  0  0  0  0  0  0  0
   -5.8238    0.0649    0.2123 H   0  0  0  0  0  0  0  0  0  0  0  0
   -6.4145   -1.4582   -0.4372 H   0  0  0  0  0  0  0  0  0  0  0  0
   -4.8600   -1.9426    1.3044 H   0  0  0  0  0  0  0  0  0  0  0  0
   -4.1540   -2.4790   -0.2148 H   0  0  0  0  0  0  0  0  0  0  0  0
   -3.4923    0.2236    1.0767 H   0  0  0  0  0  0  0  0  0  0  0  0
   -2.6403   -1.2736    1.5016 H   0  0  0  0  0  0  0  0  0  0  0  0
   -2.0690   -1.5101   -0.9105 H   0  0  0  0  0  0  0  0  0  0  0  0
    1.7572   -1.1833   -2.0935 H   0  0  0  0  0  0  0  0  0  0  0  0
    4.2645   -0.5005   -3.1851 H   0  0  0  0  0  0  0  0  0  0  0  0
    6.5845   -1.1479   -2.5730 H   0  0  0  0  0  0  0  0  0  0  0  0
    3.2918    2.1831    0.1792 H   0  0  0  0  0  0  0  0  0  0  0  0
    0.0928    3.4148    3.3909 H   0  0  0  0  0  0  0  0  0  0  0  0
   -0.4071    4.4627    2.0210 H   0  0  0  0  0  0  0  0  0  0  0  0
   -1.3510    2.9976    2.4242 H   0  0  0  0  0  0  0  0  0  0  0  0
  1  2  1  0
  2  3  1  0
  3  4  1  0
  4  5  1  0
  5  6  1  0
  6  7  2  0
  7  8  1  0
  8  9  1  0
  9 10  1  0
 10 11  2  0
 11 12  1  0
 12 13  2  0
 13 14  1  0
 13 15  1  0
 15 16  1  0
 15 17  2  0
 17 18  1  0
  8 19  2  0
 19 20  1  0
 20 21  2  0
 21 22  1  0
 22 23  1  0
 22 24  1  0
 24 25  2  0
 25  6  1  0
 17 10  1  0
 24 19  1  0
  1 26  1  0
  1 27  1  0
  1 28  1  0
  2 29  1  0
  2 30  1  0
  3 31  1  0
  3 32  1  0
  4 33  1  0
  4 34  1  0
  5 35  1  0
  9 36  1  0
 11 37  1  0
 12 38  1  0
 20 39  1  0
 23 40  1  0
 23 41  1  0
 23 42  1  0
M  END
>  <ScrubInfo>  (1) 
{"isomerGroup": 0, "isomerId": 0, "confId": 0, "nr_conformers:": 1, "nr_isomers:": 9}

$$$$
_i1
     RDKit          3D

 42 44  0  0  0  0  0  0  0  0999 V2000
    0.0619   -0.7114    1.1290 N   0  0  0  0  0  0  0  0  0  0  0  0
    1.2887   -0.0796    1.0918 C   0  0  0  0  0  0  0  0  0  0  0  0
    2.3617   -0.5804    1.8070 N   0  0  0  0  0  0  0  0  0  0  0  0
    3.6346   -0.9463    1.3004 C   0  0  0  0  0  0  0  0  0  0  0  0
    4.6357   -1.2581    2.2406 C   0  0  0  0  0  0  0  0  0  0  0  0
    5.9315   -1.5921    1.8341 C   0  0  0  0  0  0  0  0  0  0  0  0
    6.2421   -1.6105    0.4801 C   0  0  0  0  0  0  0  0  0  0  0  0
    7.4852   -1.9305    0.0973 F   0  0  0  0  0  0  0  0  0  0  0  0
    5.2773   -1.2991   -0.4653 C   0  0  0  0  0  0  0  0  0  0  0  0
    5.5856   -1.3202   -1.7700 F   0  0  0  0  0  0  0  0  0  0  0  0
    3.9876   -0.9659   -0.0607 C   0  0  0  0  0  0  0  0  0  0  0  0
    3.0777   -0.6928   -1.0079 F   0  0  0  0  0  0  0  0  0  0  0  0
    1.3179    1.0602    0.3889 C   0  0  0  0  0  0  0  0  0  0  0  0
    2.2851    2.1101    0.0520 C   0  0  0  0  0  0  0  0  0  0  0  0
    1.7802    3.0507   -0.7066 N   0  0  0  0  0  0  0  0  0  0  0  0
    0.4294    2.7060   -0.8791 N   0  0  0  0  0  0  0  0  0  0  0  0
   -0.3277    3.3537   -1.9225 C   0  0  0  0  0  0  0  0  0  0  0  0
    0.0795    1.5013   -0.2903 C   0  0  0  0  0  0  0  0  0  0  0  0
   -1.0418    0.8632   -0.2977 N   0  0  0  0  0  0  0  0  0  0  0  0
   -1.0426   -0.3120    0.4193 C   0  0  0  0  0  0  0  0  0  0  0  0
   -2.0881   -1.0725    0.4398 N   0  0  0  0  0  0  0  0  0  0  0  0
   -3.2497   -0.6180   -0.3288 C   0  0  0  0  0  0  0  0  0  0  0  0
   -4.3559   -1.6625   -0.1728 C   0  0  0  0  0  0  0  0  0  0  0  0
   -5.5920   -1.3714   -1.0251 C   0  0  0  0  0  0  0  0  0  0  0  0
   -6.3243   -0.1021   -0.6183 C   0  0  0  0  0  0  0  0  0  0  0  0
   -0.0034   -1.6317    1.5343 H   0  0  0  0  0  0  0  0  0  0  0  0
    2.0673   -1.2165    2.5443 H   0  0  0  0  0  0  0  0  0  0  0  0
    4.4133   -1.2294    3.3062 H   0  0  0  0  0  0  0  0  0  0  0  0
    6.6991   -1.8308    2.5648 H   0  0  0  0  0  0  0  0  0  0  0  0
    3.3213    2.0657    0.4096 H   0  0  0  0  0  0  0  0  0  0  0  0
   -1.3996    3.3257   -1.7020 H   0  0  0  0  0  0  0  0  0  0  0  0
   -0.1562    2.8565   -2.8822 H   0  0  0  0  0  0  0  0  0  0  0  0
   -0.0346    4.4041   -2.0191 H   0  0  0  0  0  0  0  0  0  0  0  0
   -2.9941   -0.5184   -1.3907 H   0  0  0  0  0  0  0  0  0  0  0  0
   -3.5988    0.3492    0.0497 H   0  0  0  0  0  0  0  0  0  0  0  0
   -3.9623   -2.6465   -0.4586 H   0  0  0  0  0  0  0  0  0  0  0  0
   -4.6427   -1.7418    0.8833 H   0  0  0  0  0  0  0  0  0  0  0  0
   -5.3095   -1.3063   -2.0823 H   0  0  0  0  0  0  0  0  0  0  0  0
   -6.2839   -2.2172   -0.9338 H   0  0  0  0  0  0  0  0  0  0  0  0
   -5.7170    0.7886   -0.8042 H   0  0  0  0  0  0  0  0  0  0  0  0
   -7.2477    0.0005   -1.1975 H   0  0  0  0  0  0  0  0  0  0  0  0
   -6.5910   -0.1250    0.4430 H   0  0  0  0  0  0  0  0  0  0  0  0
  1  2  1  0
  2  3  1  0
  3  4  1  0
  4  5  2  0
  5  6  1  0
  6  7  2  0
  7  8  1  0
  7  9  1  0
  9 10  1  0
  9 11  2  0
 11 12  1  0
  2 13  2  0
 13 14  1  0
 14 15  2  0
 15 16  1  0
 16 17  1  0
 16 18  1  0
 18 19  2  0
 19 20  1  0
 20 21  2  3
 21 22  1  0
 22 23  1  0
 23 24  1  0
 24 25  1  0
 20  1  1  0
 11  4  1  0
 18 13  1  0
  1 26  1  0
  3 27  1  0
  5 28  1  0
  6 29  1  0
 14 30  1  0
 17 31  1  0
 17 32  1  0
 17 33  1  0
 22 34  1  0
 22 35  1  0
 23 36  1  0
 23 37  1  0
 24 38  1  0
 24 39  1  0
 25 40  1  0
 25 41  1  0
 25 42  1  0
M  END
>  <ScrubInfo>  (2) 
{"isomerGroup": 0, "isomerId": 1, "confId": 0, "nr_conformers:": 1, "nr_isomers:": 9}

$$$$
_i2
     RDKit          3D

 42 44  0  0  0  0  0  0  0  0999 V2000
    0.4510    0.4120    0.1330 N   0  0  0  0  0  0  0  0  0  0  0  0
    1.3076   -0.5206   -0.3924 C   0  0  0  0  0  0  0  0  0  0  0  0
    2.6392   -0.2224   -0.3280 N   0  0  0  0  0  0  0  0  0  0  0  0
    3.1732    1.0461   -0.8056 C   0  0  0  0  0  0  0  0  0  0  0  0
    4.6813    1.1276   -0.5611 C   0  0  0  0  0  0  0  0  0  0  0  0
    5.0746    1.5095    0.8701 C   0  0  0  0  0  0  0  0  0  0  0  0
    4.7211    0.4677    1.9189 C   0  0  0  0  0  0  0  0  0  0  0  0
    0.9227   -1.6568   -0.9155 N   0  0  0  0  0  0  0  0  0  0  0  0
   -0.4351   -1.7802   -0.8976 C   0  0  0  0  0  0  0  0  0  0  0  0
   -1.3778   -0.8935   -0.3965 C   0  0  0  0  0  0  0  0  0  0  0  0
   -2.6089   -1.5282   -0.6351 C   0  0  0  0  0  0  0  0  0  0  0  0
   -2.4744   -2.7172   -1.2348 N   0  0  0  0  0  0  0  0  0  0  0  0
   -1.1370   -2.8448   -1.3893 N   0  0  0  0  0  0  0  0  0  0  0  0
   -0.6083   -4.0301   -2.0159 C   0  0  0  0  0  0  0  0  0  0  0  0
   -0.9200    0.3423    0.2096 C   0  0  0  0  0  0  0  0  0  0  0  0
   -1.6173    1.2791    0.7773 N   0  0  0  0  0  0  0  0  0  0  0  0
   -3.0140    1.2431    0.8381 C   0  0  0  0  0  0  0  0  0  0  0  0
   -3.6428    0.7297    1.9801 C   0  0  0  0  0  0  0  0  0  0  0  0
   -5.0363    0.7360    2.0832 C   0  0  0  0  0  0  0  0  0  0  0  0
   -5.7991    1.2727    1.0496 C   0  0  0  0  0  0  0  0  0  0  0  0
   -7.1345    1.2775    1.1576 F   0  0  0  0  0  0  0  0  0  0  0  0
   -5.1882    1.8024   -0.0793 C   0  0  0  0  0  0  0  0  0  0  0  0
   -5.9336    2.3215   -1.0655 F   0  0  0  0  0  0  0  0  0  0  0  0
   -3.8031    1.7933   -0.1825 C   0  0  0  0  0  0  0  0  0  0  0  0
   -3.2185    2.3089   -1.2755 F   0  0  0  0  0  0  0  0  0  0  0  0
    0.8575    1.1854    0.6321 H   0  0  0  0  0  0  0  0  0  0  0  0
    3.1563   -1.0067   -0.7225 H   0  0  0  0  0  0  0  0  0  0  0  0
    2.6733    1.8956   -0.3284 H   0  0  0  0  0  0  0  0  0  0  0  0
    2.9849    1.1155   -1.8834 H   0  0  0  0  0  0  0  0  0  0  0  0
    5.1703    0.1869   -0.8427 H   0  0  0  0  0  0  0  0  0  0  0  0
    5.0862    1.9015   -1.2257 H   0  0  0  0  0  0  0  0  0  0  0  0
    6.1599    1.6669    0.8942 H   0  0  0  0  0  0  0  0  0  0  0  0
    4.6137    2.4670    1.1398 H   0  0  0  0  0  0  0  0  0  0  0  0
    5.1646    0.7414    2.8819 H   0  0  0  0  0  0  0  0  0  0  0  0
    5.1019   -0.5197    1.6400 H   0  0  0  0  0  0  0  0  0  0  0  0
    3.6398    0.3989    2.0670 H   0  0  0  0  0  0  0  0  0  0  0  0
   -3.6110   -1.1987   -0.4035 H   0  0  0  0  0  0  0  0  0  0  0  0
    0.4743   -3.9448   -2.1311 H   0  0  0  0  0  0  0  0  0  0  0  0
   -0.8484   -4.8880   -1.3828 H   0  0  0  0  0  0  0  0  0  0  0  0
   -1.0752   -4.1382   -2.9983 H   0  0  0  0  0  0  0  0  0  0  0  0
   -3.0409    0.3275    2.7920 H   0  0  0  0  0  0  0  0  0  0  0  0
   -5.5293    0.3338    2.9635 H   0  0  0  0  0  0  0  0  0  0  0  0
  1  2  1  0
  2  3  1  0
  3  4  1  0
  4  5  1  0
  5  6  1  0
  6  7  1  0
  2  8  2  0
  8  9  1  0
  9 10  2  0
 10 11  1  0
 11 12  2  0
 12 13  1  0
 13 14  1  0
 10 15  1  0
 15 16  2  3
 16 17  1  0
 17 18  2  0
 18 19  1  0
 19 20  2  0
 20 21  1  0
 20 22  1  0
 22 23  1  0
 22 24  2  0
 24 25  1  0
 15  1  1  0
 24 17  1  0
 13  9  1  0
  1 26  1  0
  3 27  1  0
  4 28  1  0
  4 29  1  0
  5 30  1  0
  5 31  1  0
  6 32  1  0
  6 33  1  0
  7 34  1  0
  7 35  1  0
  7 36  1  0
 11 37  1  0
 14 38  1  0
 14 39  1  0
 14 40  1  0
 18 41  1  0
 19 42  1  0
M  END
>  <ScrubInfo>  (3) 
{"isomerGroup": 0, "isomerId": 2, "confId": 0, "nr_conformers:": 1, "nr_isomers:": 9}

$$$$
_i3
     RDKit          3D

 42 44  0  0  0  0  0  0  0  0999 V2000
    0.8671    1.5110   -0.4548 N   0  0  0  0  0  0  0  0  0  0  0  0
    1.1455    0.2021   -0.8189 C   0  0  0  0  0  0  0  0  0  0  0  0
    2.3129   -0.3303   -0.9063 N   0  0  0  0  0  0  0  0  0  0  0  0
    3.4901    0.4664   -0.5947 C   0  0  0  0  0  0  0  0  0  0  0  0
    4.7400   -0.4027   -0.7435 C   0  0  0  0  0  0  0  0  0  0  0  0
    4.8021   -1.6071    0.2015 C   0  0  0  0  0  0  0  0  0  0  0  0
    4.8328   -1.2253    1.6733 C   0  0  0  0  0  0  0  0  0  0  0  0
    0.1280   -0.6861   -1.1395 N   0  0  0  0  0  0  0  0  0  0  0  0
   -1.1123   -0.2947   -1.0752 C   0  0  0  0  0  0  0  0  0  0  0  0
   -2.1627   -1.1217   -1.3899 N   0  0  0  0  0  0  0  0  0  0  0  0
   -3.1991   -1.4594   -0.4744 C   0  0  0  0  0  0  0  0  0  0  0  0
   -4.3816   -2.0042   -1.0047 C   0  0  0  0  0  0  0  0  0  0  0  0
   -5.4266   -2.4000   -0.1649 C   0  0  0  0  0  0  0  0  0  0  0  0
   -5.2871   -2.2717    1.2129 C   0  0  0  0  0  0  0  0  0  0  0  0
   -6.2925   -2.6557    2.0107 F   0  0  0  0  0  0  0  0  0  0  0  0
   -4.1177   -1.7625    1.7583 C   0  0  0  0  0  0  0  0  0  0  0  0
   -3.9865   -1.6609    3.0888 F   0  0  0  0  0  0  0  0  0  0  0  0
   -3.0774   -1.3681    0.9233 C   0  0  0  0  0  0  0  0  0  0  0  0
   -1.9441   -0.9139    1.4789 F   0  0  0  0  0  0  0  0  0  0  0  0
   -1.4427    1.0698   -0.7412 C   0  0  0  0  0  0  0  0  0  0  0  0
   -2.5896    1.8712   -0.6482 C   0  0  0  0  0  0  0  0  0  0  0  0
   -2.3026    3.1321   -0.2882 N   0  0  0  0  0  0  0  0  0  0  0  0
   -0.9529    3.1313   -0.1526 N   0  0  0  0  0  0  0  0  0  0  0  0
   -0.2876    4.3482    0.2370 C   0  0  0  0  0  0  0  0  0  0  0  0
   -0.4142    1.9166   -0.4353 C   0  0  0  0  0  0  0  0  0  0  0  0
    1.6500    2.1095   -0.2417 H   0  0  0  0  0  0  0  0  0  0  0  0
    3.4359    0.8758    0.4199 H   0  0  0  0  0  0  0  0  0  0  0  0
    3.5714    1.3061   -1.2955 H   0  0  0  0  0  0  0  0  0  0  0  0
    4.7972   -0.7726   -1.7750 H   0  0  0  0  0  0  0  0  0  0  0  0
    5.6261    0.2240   -0.5847 H   0  0  0  0  0  0  0  0  0  0  0  0
    3.9560   -2.2788    0.0175 H   0  0  0  0  0  0  0  0  0  0  0  0
    5.7095   -2.1784   -0.0286 H   0  0  0  0  0  0  0  0  0  0  0  0
    5.6486   -0.5260    1.8815 H   0  0  0  0  0  0  0  0  0  0  0  0
    3.8916   -0.7649    1.9877 H   0  0  0  0  0  0  0  0  0  0  0  0
    4.9858   -2.1174    2.2891 H   0  0  0  0  0  0  0  0  0  0  0  0
   -1.7645   -1.9951   -1.7358 H   0  0  0  0  0  0  0  0  0  0  0  0
   -4.4984   -2.1084   -2.0825 H   0  0  0  0  0  0  0  0  0  0  0  0
   -6.3453   -2.8086   -0.5761 H   0  0  0  0  0  0  0  0  0  0  0  0
   -3.6224    1.6037   -0.8276 H   0  0  0  0  0  0  0  0  0  0  0  0
    0.7758    4.1569    0.3953 H   0  0  0  0  0  0  0  0  0  0  0  0
   -0.4198    5.0823   -0.5616 H   0  0  0  0  0  0  0  0  0  0  0  0
   -0.7386    4.7075    1.1656 H   0  0  0  0  0  0  0  0  0  0  0  0
  1  2  1  0
  2  3  2  3
  3  4  1  0
  4  5  1  0
  5  6  1  0
  6  7  1  0
  2  8  1  0
  8  9  2  0
  9 10  1  0
 10 11  1  0
 11 12  2  0
 12 13  1  0
 13 14  2  0
 14 15  1  0
 14 16  1  0
 16 17  1  0
 16 18  2  0
 18 19  1  0
  9 20  1  0
 20 21  1  0
 21 22  2  0
 22 23  1  0
 23 24  1  0
 23 25  1  0
 25  1  1  0
 18 11  1  0
 25 20  2  0
  1 26  1  0
  4 27  1  0
  4 28  1  0
  5 29  1  0
  5 30  1  0
  6 31  1  0
  6 32  1  0
  7 33  1  0
  7 34  1  0
  7 35  1  0
 10 36  1  0
 12 37  1  0
 13 38  1  0
 21 39  1  0
 24 40  1  0
 24 41  1  0
 24 42  1  0
M  END
>  <ScrubInfo>  (4) 
{"isomerGroup": 0, "isomerId": 3, "confId": 0, "nr_conformers:": 1, "nr_isomers:": 9}

$$$$
_i4
     RDKit          3D

 42 44  0  0  0  0  0  0  0  0999 V2000
   -1.8991    3.3074    0.4581 N   0  0  0  0  0  0  0  0  0  0  0  0
   -2.3308    2.0187    0.1638 C   0  0  0  0  0  0  0  0  0  0  0  0
   -1.3325    1.1257    0.0775 C   0  0  0  0  0  0  0  0  0  0  0  0
   -1.1370   -0.3003   -0.1522 C   0  0  0  0  0  0  0  0  0  0  0  0
   -1.9867   -1.2439   -0.3872 N   0  0  0  0  0  0  0  0  0  0  0  0
   -3.3624   -0.9991   -0.4255 C   0  0  0  0  0  0  0  0  0  0  0  0
   -4.0015   -0.9062   -1.6687 C   0  0  0  0  0  0  0  0  0  0  0  0
   -5.3831   -0.7136   -1.7434 C   0  0  0  0  0  0  0  0  0  0  0  0
   -6.1274   -0.6279   -0.5706 C   0  0  0  0  0  0  0  0  0  0  0  0
   -7.4510   -0.4359   -0.6491 F   0  0  0  0  0  0  0  0  0  0  0  0
   -5.5102   -0.7357    0.6687 C   0  0  0  0  0  0  0  0  0  0  0  0
   -6.2379   -0.6434    1.7911 F   0  0  0  0  0  0  0  0  0  0  0  0
   -4.1363   -0.9274    0.7418 C   0  0  0  0  0  0  0  0  0  0  0  0
   -3.5466   -1.0164    1.9443 F   0  0  0  0  0  0  0  0  0  0  0  0
    0.1728   -0.6937   -0.1116 N   0  0  0  0  0  0  0  0  0  0  0  0
    1.1604    0.1178    0.1087 C   0  0  0  0  0  0  0  0  0  0  0  0
    2.4457   -0.3402    0.1474 N   0  0  0  0  0  0  0  0  0  0  0  0
    2.7631   -1.7347    0.3747 C   0  0  0  0  0  0  0  0  0  0  0  0
    4.2684   -1.9718    0.2473 C   0  0  0  0  0  0  0  0  0  0  0  0
    4.7751   -1.7763   -1.1838 C   0  0  0  0  0  0  0  0  0  0  0  0
    6.2644   -2.0656   -1.2895 C   0  0  0  0  0  0  0  0  0  0  0  0
    1.0453    1.4653    0.3164 N   0  0  0  0  0  0  0  0  0  0  0  0
   -0.1382    1.9697    0.2799 C   0  0  0  0  0  0  0  0  0  0  0  0
   -0.5139    3.3066    0.4190 N   0  0  0  0  0  0  0  0  0  0  0  0
    0.2184    4.2012    1.2947 C   0  0  0  0  0  0  0  0  0  0  0  0
   -2.3663    4.0327   -0.0910 H   0  0  0  0  0  0  0  0  0  0  0  0
   -3.3902    1.8589    0.0379 H   0  0  0  0  0  0  0  0  0  0  0  0
   -3.4144   -0.9979   -2.5804 H   0  0  0  0  0  0  0  0  0  0  0  0
   -5.8816   -0.6408   -2.7056 H   0  0  0  0  0  0  0  0  0  0  0  0
    3.0731    0.3346    0.5656 H   0  0  0  0  0  0  0  0  0  0  0  0
    2.4421   -2.0166    1.3841 H   0  0  0  0  0  0  0  0  0  0  0  0
    2.2290   -2.3748   -0.3371 H   0  0  0  0  0  0  0  0  0  0  0  0
    4.8110   -1.3015    0.9256 H   0  0  0  0  0  0  0  0  0  0  0  0
    4.4871   -2.9977    0.5680 H   0  0  0  0  0  0  0  0  0  0  0  0
    4.2311   -2.4411   -1.8648 H   0  0  0  0  0  0  0  0  0  0  0  0
    4.5889   -0.7486   -1.5156 H   0  0  0  0  0  0  0  0  0  0  0  0
    6.6064   -1.9209   -2.3191 H   0  0  0  0  0  0  0  0  0  0  0  0
    6.4853   -3.0980   -1.0003 H   0  0  0  0  0  0  0  0  0  0  0  0
    6.8407   -1.3962   -0.6428 H   0  0  0  0  0  0  0  0  0  0  0  0
   -0.1663    5.2223    1.2038 H   0  0  0  0  0  0  0  0  0  0  0  0
    0.1254    3.8860    2.3392 H   0  0  0  0  0  0  0  0  0  0  0  0
    1.2797    4.2194    1.0270 H   0  0  0  0  0  0  0  0  0  0  0  0
  1  2  1  0
  2  3  2  0
  3  4  1  0
  4  5  2  3
  5  6  1  0
  6  7  2  0
  7  8  1  0
  8  9  2  0
  9 10  1  0
  9 11  1  0
 11 12  1  0
 11 13  2  0
 13 14  1  0
  4 15  1  0
 15 16  2  0
 16 17  1  0
 17 18  1  0
 18 19  1  0
 19 20  1  0
 20 21  1  0
 16 22  1  0
 22 23  2  0
 23 24  1  0
 24 25  1  0
 24  1  1  0
 23  3  1  0
 13  6  1  0
  1 26  1  0
  2 27  1  0
  7 28  1  0
  8 29  1  0
 17 30  1  0
 18 31  1  0
 18 32  1  0
 19 33  1  0
 19 34  1  0
 20 35  1  0
 20 36  1  0
 21 37  1  0
 21 38  1  0
 21 39  1  0
 25 40  1  0
 25 41  1  0
 25 42  1  0
M  END
>  <ScrubInfo>  (5) 
{"isomerGroup": 0, "isomerId": 4, "confId": 0, "nr_conformers:": 1, "nr_isomers:": 9}

$$$$
_i5
     RDKit          3D

 42 44  0  0  0  0  0  0  0  0999 V2000
    0.5969    1.8706    0.4597 N   0  0  0  0  0  0  0  0  0  0  0  0
    0.9083    0.8143    1.2773 C   0  0  0  0  0  0  0  0  0  0  0  0
    2.0430    0.9576    2.0221 N   0  0  0  0  0  0  0  0  0  0  0  0
    3.3165    1.4077    1.4800 C   0  0  0  0  0  0  0  0  0  0  0  0
    3.8688    0.4531    0.4195 C   0  0  0  0  0  0  0  0  0  0  0  0
    4.2381   -0.9204    0.9846 C   0  0  0  0  0  0  0  0  0  0  0  0
    4.8540   -1.8115   -0.0831 C   0  0  0  0  0  0  0  0  0  0  0  0
    0.2131   -0.2814    1.3923 N   0  0  0  0  0  0  0  0  0  0  0  0
   -0.9509   -0.4461    0.6524 C   0  0  0  0  0  0  0  0  0  0  0  0
   -1.5737   -1.5682    0.8264 N   0  0  0  0  0  0  0  0  0  0  0  0
   -2.7804   -1.8780    0.1961 C   0  0  0  0  0  0  0  0  0  0  0  0
   -2.7681   -2.6973   -0.9405 C   0  0  0  0  0  0  0  0  0  0  0  0
   -3.9648   -3.0727   -1.5561 C   0  0  0  0  0  0  0  0  0  0  0  0
   -5.1757   -2.6408   -1.0225 C   0  0  0  0  0  0  0  0  0  0  0  0
   -6.3191   -3.0047   -1.6185 F   0  0  0  0  0  0  0  0  0  0  0  0
   -5.2040   -1.8444    0.1148 C   0  0  0  0  0  0  0  0  0  0  0  0
   -6.3773   -1.4353    0.6186 F   0  0  0  0  0  0  0  0  0  0  0  0
   -4.0136   -1.4699    0.7251 C   0  0  0  0  0  0  0  0  0  0  0  0
   -4.0498   -0.6947    1.8203 F   0  0  0  0  0  0  0  0  0  0  0  0
   -1.3216    0.6474   -0.2312 C   0  0  0  0  0  0  0  0  0  0  0  0
   -2.3414    0.9474   -1.1518 C   0  0  0  0  0  0  0  0  0  0  0  0
   -2.2017    2.1593   -1.7115 N   0  0  0  0  0  0  0  0  0  0  0  0
   -1.0793    2.6498   -1.1391 N   0  0  0  0  0  0  0  0  0  0  0  0
   -0.6209    3.9638   -1.5113 C   0  0  0  0  0  0  0  0  0  0  0  0
   -0.5241    1.7641   -0.2726 C   0  0  0  0  0  0  0  0  0  0  0  0
    1.0897    2.7382    0.6173 H   0  0  0  0  0  0  0  0  0  0  0  0
    2.1546    0.1267    2.6011 H   0  0  0  0  0  0  0  0  0  0  0  0
    3.2098    2.4100    1.0508 H   0  0  0  0  0  0  0  0  0  0  0  0
    4.0323    1.5005    2.3047 H   0  0  0  0  0  0  0  0  0  0  0  0
    4.7649    0.9100   -0.0186 H   0  0  0  0  0  0  0  0  0  0  0  0
    3.1456    0.3328   -0.3962 H   0  0  0  0  0  0  0  0  0  0  0  0
    4.9497   -0.8044    1.8101 H   0  0  0  0  0  0  0  0  0  0  0  0
    3.3495   -1.4183    1.3879 H   0  0  0  0  0  0  0  0  0  0  0  0
    4.1552   -1.9721   -0.9104 H   0  0  0  0  0  0  0  0  0  0  0  0
    5.1101   -2.7879    0.3398 H   0  0  0  0  0  0  0  0  0  0  0  0
    5.7687   -1.3659   -0.4868 H   0  0  0  0  0  0  0  0  0  0  0  0
   -1.8185   -3.0496   -1.3377 H   0  0  0  0  0  0  0  0  0  0  0  0
   -3.9598   -3.7050   -2.4391 H   0  0  0  0  0  0  0  0  0  0  0  0
   -3.1900    0.3530   -1.4577 H   0  0  0  0  0  0  0  0  0  0  0  0
    0.3294    4.1813   -1.0194 H   0  0  0  0  0  0  0  0  0  0  0  0
   -1.3752    4.6910   -1.2006 H   0  0  0  0  0  0  0  0  0  0  0  0
   -0.4884    3.9898   -2.5959 H   0  0  0  0  0  0  0  0  0  0  0  0
  1  2  1  0
  2  3  1  0
  3  4  1  0
  4  5  1  0
  5  6  1  0
  6  7  1  0
  2  8  2  0
  8  9  1  0
  9 10  2  3
 10 11  1  0
 11 12  2  0
 12 13  1  0
 13 14  2  0
 14 15  1  0
 14 16  1  0
 16 17  1  0
 16 18  2  0
 18 19  1  0
  9 20  1  0
 20 21  1  0
 21 22  2  0
 22 23  1  0
 23 24  1  0
 23 25  1  0
 25  1  1  0
 18 11  1  0
 25 20  2  0
  1 26  1  0
  3 27  1  0
  4 28  1  0
  4 29  1  0
  5 30  1  0
  5 31  1  0
  6 32  1  0
  6 33  1  0
  7 34  1  0
  7 35  1  0
  7 36  1  0
 12 37  1  0
 13 38  1  0
 21 39  1  0
 24 40  1  0
 24 41  1  0
 24 42  1  0
M  END
>  <ScrubInfo>  (6) 
{"isomerGroup": 0, "isomerId": 5, "confId": 0, "nr_conformers:": 1, "nr_isomers:": 9}

$$$$
_i6
     RDKit          3D

 42 44  0  0  0  0  0  0  0  0999 V2000
   -0.3870   -4.2690    0.9718 N   0  0  0  0  0  0  0  0  0  0  0  0
   -1.2405   -3.2094    1.2593 C   0  0  0  0  0  0  0  0  0  0  0  0
   -0.8430   -2.0544    0.7073 C   0  0  0  0  0  0  0  0  0  0  0  0
   -1.3029   -0.6654    0.6189 C   0  0  0  0  0  0  0  0  0  0  0  0
   -2.4558   -0.2916    1.2809 N   0  0  0  0  0  0  0  0  0  0  0  0
   -3.1010    0.9615    1.3522 C   0  0  0  0  0  0  0  0  0  0  0  0
   -2.6530    2.1304    0.7238 C   0  0  0  0  0  0  0  0  0  0  0  0
   -3.3592    3.3348    0.8514 C   0  0  0  0  0  0  0  0  0  0  0  0
   -4.5220    3.3805    1.6109 C   0  0  0  0  0  0  0  0  0  0  0  0
   -5.1886    4.5368    1.7261 F   0  0  0  0  0  0  0  0  0  0  0  0
   -4.9870    2.2400    2.2434 C   0  0  0  0  0  0  0  0  0  0  0  0
   -6.1082    2.2816    2.9772 F   0  0  0  0  0  0  0  0  0  0  0  0
   -4.2827    1.0491    2.1132 C   0  0  0  0  0  0  0  0  0  0  0  0
   -4.7356   -0.0573    2.7287 F   0  0  0  0  0  0  0  0  0  0  0  0
   -0.5815    0.1472   -0.0958 N   0  0  0  0  0  0  0  0  0  0  0  0
    0.5510   -0.3041   -0.7341 C   0  0  0  0  0  0  0  0  0  0  0  0
    1.1274    0.5968   -1.4462 N   0  0  0  0  0  0  0  0  0  0  0  0
    2.3412    0.2650   -2.1860 C   0  0  0  0  0  0  0  0  0  0  0  0
    3.5852    0.5075   -1.3297 C   0  0  0  0  0  0  0  0  0  0  0  0
    3.7432    1.9409   -0.8127 C   0  0  0  0  0  0  0  0  0  0  0  0
    3.8896    2.9743   -1.9186 C   0  0  0  0  0  0  0  0  0  0  0  0
    1.0864   -1.5686   -0.6611 N   0  0  0  0  0  0  0  0  0  0  0  0
    0.4277   -2.4192    0.0446 C   0  0  0  0  0  0  0  0  0  0  0  0
    0.7240   -3.7558    0.3118 N   0  0  0  0  0  0  0  0  0  0  0  0
    1.4112   -4.5784   -0.6659 C   0  0  0  0  0  0  0  0  0  0  0  0
   -0.1928   -4.8728    1.7746 H   0  0  0  0  0  0  0  0  0  0  0  0
   -2.1099   -3.3965    1.8724 H   0  0  0  0  0  0  0  0  0  0  0  0
   -2.9496   -1.0084    1.8038 H   0  0  0  0  0  0  0  0  0  0  0  0
   -1.7488    2.1411    0.1202 H   0  0  0  0  0  0  0  0  0  0  0  0
   -3.0007    4.2343    0.3582 H   0  0  0  0  0  0  0  0  0  0  0  0
    2.3755    0.8911   -3.0843 H   0  0  0  0  0  0  0  0  0  0  0  0
    2.3377   -0.7659   -2.5605 H   0  0  0  0  0  0  0  0  0  0  0  0
    3.5681   -0.1672   -0.4651 H   0  0  0  0  0  0  0  0  0  0  0  0
    4.4721    0.2386   -1.9164 H   0  0  0  0  0  0  0  0  0  0  0  0
    4.6372    1.9811   -0.1788 H   0  0  0  0  0  0  0  0  0  0  0  0
    2.8953    2.2097   -0.1725 H   0  0  0  0  0  0  0  0  0  0  0  0
    4.1039    3.9575   -1.4874 H   0  0  0  0  0  0  0  0  0  0  0  0
    4.7110    2.7144   -2.5937 H   0  0  0  0  0  0  0  0  0  0  0  0
    2.9719    3.0649   -2.5069 H   0  0  0  0  0  0  0  0  0  0  0  0
    1.6388   -5.5622   -0.2428 H   0  0  0  0  0  0  0  0  0  0  0  0
    2.3577   -4.1149   -0.9622 H   0  0  0  0  0  0  0  0  0  0  0  0
    0.7938   -4.7179   -1.5594 H   0  0  0  0  0  0  0  0  0  0  0  0
  1  2  1  0
  2  3  2  0
  3  4  1  0
  4  5  1  0
  5  6  1  0
  6  7  2  0
  7  8  1  0
  8  9  2  0
  9 10  1  0
  9 11  1  0
 11 12  1  0
 11 13  2  0
 13 14  1  0
  4 15  2  0
 15 16  1  0
 16 17  2  3
 17 18  1  0
 18 19  1  0
 19 20  1  0
 20 21  1  0
 16 22  1  0
 22 23  2  0
 23 24  1  0
 24 25  1  0
 24  1  1  0
 23  3  1  0
 13  6  1  0
  1 26  1  0
  2 27  1  0
  5 28  1  0
  7 29  1  0
  8 30  1  0
 18 31  1  0
 18 32  1  0
 19 33  1  0
 19 34  1  0
 20 35  1  0
 20 36  1  0
 21 37  1  0
 21 38  1  0
 21 39  1  0
 25 40  1  0
 25 41  1  0
 25 42  1  0
M  END
>  <ScrubInfo>  (7) 
{"isomerGroup": 0, "isomerId": 6, "confId": 0, "nr_conformers:": 1, "nr_isomers:": 9}

$$$$
_i7
     RDKit          3D

 42 44  0  0  0  0  0  0  0  0999 V2000
   -1.5468    3.2101    0.2776 N   0  0  0  0  0  0  0  0  0  0  0  0
   -2.0739    1.9400    0.0715 C   0  0  0  0  0  0  0  0  0  0  0  0
   -1.1646    0.9592    0.1686 C   0  0  0  0  0  0  0  0  0  0  0  0
   -1.0511   -0.5040    0.0270 C   0  0  0  0  0  0  0  0  0  0  0  0
   -1.9757   -1.3859   -0.2186 N   0  0  0  0  0  0  0  0  0  0  0  0
   -3.3208   -1.0168   -0.3417 C   0  0  0  0  0  0  0  0  0  0  0  0
   -3.8844   -0.9064   -1.6192 C   0  0  0  0  0  0  0  0  0  0  0  0
   -5.2359   -0.5858   -1.7717 C   0  0  0  0  0  0  0  0  0  0  0  0
   -6.0262   -0.3892   -0.6429 C   0  0  0  0  0  0  0  0  0  0  0  0
   -7.3196   -0.0761   -0.7970 F   0  0  0  0  0  0  0  0  0  0  0  0
   -5.4848   -0.5121    0.6298 C   0  0  0  0  0  0  0  0  0  0  0  0
   -6.2547   -0.3139    1.7093 F   0  0  0  0  0  0  0  0  0  0  0  0
   -4.1414   -0.8308    0.7804 C   0  0  0  0  0  0  0  0  0  0  0  0
   -3.6226   -0.9385    2.0138 F   0  0  0  0  0  0  0  0  0  0  0  0
    0.2366   -0.9489    0.1728 N   0  0  0  0  0  0  0  0  0  0  0  0
    1.3517   -0.1961    0.4429 C   0  0  0  0  0  0  0  0  0  0  0  0
    2.5565   -0.6302    0.5547 N   0  0  0  0  0  0  0  0  0  0  0  0
    2.8297   -2.0498    0.3812 C   0  0  0  0  0  0  0  0  0  0  0  0
    4.3333   -2.3001    0.5114 C   0  0  0  0  0  0  0  0  0  0  0  0
    5.1438   -1.9769   -0.7483 C   0  0  0  0  0  0  0  0  0  0  0  0
    5.1735   -0.5023   -1.1156 C   0  0  0  0  0  0  0  0  0  0  0  0
    1.2547    1.1666    0.6279 N   0  0  0  0  0  0  0  0  0  0  0  0
    0.0876    1.7164    0.5184 C   0  0  0  0  0  0  0  0  0  0  0  0
   -0.2268    3.0673    0.6779 N   0  0  0  0  0  0  0  0  0  0  0  0
    0.7344    4.1026    0.3490 C   0  0  0  0  0  0  0  0  0  0  0  0
   -2.1315    3.8027    0.8722 H   0  0  0  0  0  0  0  0  0  0  0  0
   -3.1277    1.8632   -0.1462 H   0  0  0  0  0  0  0  0  0  0  0  0
   -3.2653   -1.0788   -2.4971 H   0  0  0  0  0  0  0  0  0  0  0  0
   -5.6766   -0.4963   -2.7605 H   0  0  0  0  0  0  0  0  0  0  0  0
    0.3517   -1.9451    0.0863 H   0  0  0  0  0  0  0  0  0  0  0  0
    2.3190   -2.6170    1.1689 H   0  0  0  0  0  0  0  0  0  0  0  0
    2.4753   -2.4110   -0.5913 H   0  0  0  0  0  0  0  0  0  0  0  0
    4.7395   -1.7468    1.3670 H   0  0  0  0  0  0  0  0  0  0  0  0
    4.4793   -3.3661    0.7273 H   0  0  0  0  0  0  0  0  0  0  0  0
    4.7588   -2.5546   -1.5968 H   0  0  0  0  0  0  0  0  0  0  0  0
    6.1756   -2.3113   -0.5844 H   0  0  0  0  0  0  0  0  0  0  0  0
    5.8860   -0.3340   -1.9299 H   0  0  0  0  0  0  0  0  0  0  0  0
    4.1959   -0.1558   -1.4622 H   0  0  0  0  0  0  0  0  0  0  0  0
    5.4828    0.1116   -0.2640 H   0  0  0  0  0  0  0  0  0  0  0  0
    0.3435    5.0869    0.6266 H   0  0  0  0  0  0  0  0  0  0  0  0
    1.6700    3.9492    0.8961 H   0  0  0  0  0  0  0  0  0  0  0  0
    0.9512    4.1047   -0.7243 H   0  0  0  0  0  0  0  0  0  0  0  0
  1  2  1  0
  2  3  2  0
  3  4  1  0
  4  5  2  3
  5  6  1  0
  6  7  2  0
  7  8  1  0
  8  9  2  0
  9 10  1  0
  9 11  1  0
 11 12  1  0
 11 13  2  0
 13 14  1  0
  4 15  1  0
 15 16  1  0
 16 17  2  3
 17 18  1  0
 18 19  1  0
 19 20  1  0
 20 21  1  0
 16 22  1  0
 22 23  2  0
 23 24  1  0
 24 25  1  0
 24  1  1  0
 23  3  1  0
 13  6  1  0
  1 26  1  0
  2 27  1  0
  7 28  1  0
  8 29  1  0
 15 30  1  0
 18 31  1  0
 18 32  1  0
 19 33  1  0
 19 34  1  0
 20 35  1  0
 20 36  1  0
 21 37  1  0
 21 38  1  0
 21 39  1  0
 25 40  1  0
 25 41  1  0
 25 42  1  0
M  END
>  <ScrubInfo>  (8) 
{"isomerGroup": 0, "isomerId": 7, "confId": 0, "nr_conformers:": 1, "nr_isomers:": 9}

$$$$
_i8
     RDKit          3D

 42 44  0  0  0  0  0  0  0  0999 V2000
    0.6887    1.9772   -0.3925 N   0  0  0  0  0  0  0  0  0  0  0  0
    0.6611    0.5910   -0.4042 C   0  0  0  0  0  0  0  0  0  0  0  0
    1.6498   -0.2224   -0.5637 N   0  0  0  0  0  0  0  0  0  0  0  0
    2.9869    0.3321   -0.7452 C   0  0  0  0  0  0  0  0  0  0  0  0
    3.9994   -0.8083   -0.8642 C   0  0  0  0  0  0  0  0  0  0  0  0
    4.4164   -1.4316    0.4723 C   0  0  0  0  0  0  0  0  0  0  0  0
    3.3030   -2.1714    1.1959 C   0  0  0  0  0  0  0  0  0  0  0  0
   -0.5990    0.0552   -0.2223 N   0  0  0  0  0  0  0  0  0  0  0  0
   -1.8235    0.6620   -0.0270 C   0  0  0  0  0  0  0  0  0  0  0  0
   -3.0105    0.1803    0.1380 N   0  0  0  0  0  0  0  0  0  0  0  0
   -3.1995   -1.2099    0.1626 C   0  0  0  0  0  0  0  0  0  0  0  0
   -3.9619   -1.7978   -0.8546 C   0  0  0  0  0  0  0  0  0  0  0  0
   -4.2153   -3.1723   -0.8504 C   0  0  0  0  0  0  0  0  0  0  0  0
   -3.7135   -3.9591    0.1816 C   0  0  0  0  0  0  0  0  0  0  0  0
   -3.9577   -5.2763    0.1783 F   0  0  0  0  0  0  0  0  0  0  0  0
   -2.9671   -3.3900    1.2044 C   0  0  0  0  0  0  0  0  0  0  0  0
   -2.4839   -4.1579    2.1914 F   0  0  0  0  0  0  0  0  0  0  0  0
   -2.7163   -2.0235    1.1983 C   0  0  0  0  0  0  0  0  0  0  0  0
   -1.9839   -1.4841    2.1854 F   0  0  0  0  0  0  0  0  0  0  0  0
   -1.6845    2.1002   -0.0321 C   0  0  0  0  0  0  0  0  0  0  0  0
   -2.5652    3.1825    0.1106 C   0  0  0  0  0  0  0  0  0  0  0  0
   -1.9369    4.3648    0.0235 N   0  0  0  0  0  0  0  0  0  0  0  0
   -0.6373    4.0294   -0.1642 N   0  0  0  0  0  0  0  0  0  0  0  0
    0.3400    5.0801   -0.2959 C   0  0  0  0  0  0  0  0  0  0  0  0
   -0.4523    2.6806   -0.2104 C   0  0  0  0  0  0  0  0  0  0  0  0
    1.5871    2.4214   -0.5225 H   0  0  0  0  0  0  0  0  0  0  0  0
    3.2635    0.9907    0.0865 H   0  0  0  0  0  0  0  0  0  0  0  0
    3.0152    0.9148   -1.6739 H   0  0  0  0  0  0  0  0  0  0  0  0
    3.6183   -1.5881   -1.5350 H   0  0  0  0  0  0  0  0  0  0  0  0
    4.9064   -0.4053   -1.3323 H   0  0  0  0  0  0  0  0  0  0  0  0
    4.8264   -0.6578    1.1318 H   0  0  0  0  0  0  0  0  0  0  0  0
    5.2304   -2.1406    0.2779 H   0  0  0  0  0  0  0  0  0  0  0  0
    3.7108   -2.7106    2.0573 H   0  0  0  0  0  0  0  0  0  0  0  0
    2.5433   -1.4818    1.5743 H   0  0  0  0  0  0  0  0  0  0  0  0
    2.8200   -2.9009    0.5385 H   0  0  0  0  0  0  0  0  0  0  0  0
   -0.5843   -0.9525   -0.2168 H   0  0  0  0  0  0  0  0  0  0  0  0
   -4.3657   -1.1748   -1.6502 H   0  0  0  0  0  0  0  0  0  0  0  0
   -4.8050   -3.6297   -1.6395 H   0  0  0  0  0  0  0  0  0  0  0  0
   -3.6355    3.1616    0.2718 H   0  0  0  0  0  0  0  0  0  0  0  0
    0.1895    5.8000    0.5128 H   0  0  0  0  0  0  0  0  0  0  0  0
    0.1959    5.5604   -1.2668 H   0  0  0  0  0  0  0  0  0  0  0  0
    1.3468    4.6630   -0.2292 H   0  0  0  0  0  0  0  0  0  0  0  0
  1  2  1  0
  2  3  2  3
  3  4  1  0
  4  5  1  0
  5  6  1  0
  6  7  1  0
  2  8  1  0
  8  9  1  0
  9 10  2  3
 10 11  1  0
 11 12  2  0
 12 13  1  0
 13 14  2  0
 14 15  1  0
 14 16  1  0
 16 17  1  0
 16 18  2  0
 18 19  1  0
  9 20  1  0
 20 21  1  0
 21 22  2  0
 22 23  1  0
 23 24  1  0
 23 25  1  0
 25  1  1  0
 18 11  1  0
 25 20  2  0
  1 26  1  0
  4 27  1  0
  4 28  1  0
  5 29  1  0
  5 30  1  0
  6 31  1  0
  6 32  1  0
  7 33  1  0
  7 34  1  0
  7 35  1  0
  8 36  1  0
 12 37  1  0
 13 38  1  0
 21 39  1  0
 24 40  1  0
 24 41  1  0
 24 42  1  0
M  END
>  <ScrubInfo>  (9) 
{"isomerGroup": 0, "isomerId": 8, "confId": 0, "nr_conformers:": 1, "nr_isomers:": 9}

$$$$
