_i0
     RDKit          3D

 49 51  0  0  0  0  0  0  0  0999 V2000
    2.8855    1.1490    0.3305 C   0  0  0  0  0  0  0  0  0  0  0  0
    2.2869    2.2769    1.1580 N   0  0  0  0  0  4  0  0  0  0  0  0
    3.0405    2.4665    2.4455 C   0  0  0  0  0  0  0  0  0  0  0  0
    0.8211    2.0444    1.4291 C   0  0  0  0  0  0  0  0  0  0  0  0
    2.5215    1.2601   -1.1684 C   0  0  0  0  0  0  0  0  0  0  0  0
    2.7961    0.0134   -1.8536 N   0  0  0  0  0  0  0  0  0  0  0  0
    1.7997   -0.9496   -1.7991 C   0  0  0  0  0  0  0  0  0  0  0  0
    0.8959   -0.9164   -0.8197 N   0  0  0  0  0  0  0  0  0  0  0  0
    1.8284   -1.8634   -2.7585 N   0  0  0  0  0  0  0  0  0  0  0  0
   -0.0301   -1.9009   -0.8087 C   0  0  0  0  0  0  0  0  0  0  0  0
    0.9277   -2.8404   -2.7255 C   0  0  0  0  0  0  0  0  0  0  0  0
   -0.9848   -1.9425    0.2536 N   0  0  0  0  0  0  0  0  0  0  0  0
   -0.0611   -2.9328   -1.7406 C   0  0  0  0  0  0  0  0  0  0  0  0
    0.9783   -3.7637   -3.6912 N   0  0  0  0  0  0  0  0  0  0  0  0
   -1.5138   -0.8173    0.9260 C   0  0  0  0  0  0  0  0  0  0  0  0
   -0.9994   -3.9269   -1.7149 N   0  0  0  0  0  0  0  0  0  0  0  0
    0.0635   -4.7613   -3.6688 C   0  0  0  0  0  0  0  0  0  0  0  0
   -1.5171   -0.8542    2.3283 C   0  0  0  0  0  0  0  0  0  0  0  0
   -2.1730    0.2418    0.2722 C   0  0  0  0  0  0  0  0  0  0  0  0
   -0.9096   -4.8438   -2.6983 C   0  0  0  0  0  0  0  0  0  0  0  0
   -2.0859    0.1763    3.0792 C   0  0  0  0  0  0  0  0  0  0  0  0
   -2.3138    0.3050   -1.2249 C   0  0  0  0  0  0  0  0  0  0  0  0
   -2.7312    1.2824    1.0402 C   0  0  0  0  0  0  0  0  0  0  0  0
   -2.6796    1.2652    2.4397 C   0  0  0  0  0  0  0  0  0  0  0  0
   -3.3452    2.3472    3.2391 C   0  0  0  0  0  0  0  0  0  0  0  0
    3.9756    1.2181    0.4308 H   0  0  0  0  0  0  0  0  0  0  0  0
    2.5697    0.2078    0.7926 H   0  0  0  0  0  0  0  0  0  0  0  0
    2.3727    3.1521    0.6273 H   0  0  0  0  0  0  0  0  0  0  0  0
    2.9828    1.5414    3.0255 H   0  0  0  0  0  0  0  0  0  0  0  0
    4.0768    2.7120    2.1988 H   0  0  0  0  0  0  0  0  0  0  0  0
    2.5837    3.2990    2.9873 H   0  0  0  0  0  0  0  0  0  0  0  0
    0.4468    2.8951    2.0049 H   0  0  0  0  0  0  0  0  0  0  0  0
    0.2984    1.9927    0.4736 H   0  0  0  0  0  0  0  0  0  0  0  0
    0.7216    1.1169    1.9960 H   0  0  0  0  0  0  0  0  0  0  0  0
    1.4860    1.5806   -1.3298 H   0  0  0  0  0  0  0  0  0  0  0  0
    3.1479    2.0439   -1.6116 H   0  0  0  0  0  0  0  0  0  0  0  0
    3.1058    0.0613   -2.8226 H   0  0  0  0  0  0  0  0  0  0  0  0
   -1.7502   -2.5566   -0.0451 H   0  0  0  0  0  0  0  0  0  0  0  0
    0.1411   -5.4950   -4.4643 H   0  0  0  0  0  0  0  0  0  0  0  0
   -1.0750   -1.7051    2.8440 H   0  0  0  0  0  0  0  0  0  0  0  0
   -1.6406   -5.6448   -2.6860 H   0  0  0  0  0  0  0  0  0  0  0  0
   -2.0829    0.1068    4.1654 H   0  0  0  0  0  0  0  0  0  0  0  0
   -3.0972    1.0118   -1.5202 H   0  0  0  0  0  0  0  0  0  0  0  0
   -2.6022   -0.6687   -1.6330 H   0  0  0  0  0  0  0  0  0  0  0  0
   -1.3756    0.6347   -1.6806 H   0  0  0  0  0  0  0  0  0  0  0  0
   -3.2484    2.1011    0.5397 H   0  0  0  0  0  0  0  0  0  0  0  0
   -2.8457    2.4824    4.2042 H   0  0  0  0  0  0  0  0  0  0  0  0
   -4.3943    2.0912    3.4158 H   0  0  0  0  0  0  0  0  0  0  0  0
   -3.2971    3.3059    2.7120 H   0  0  0  0  0  0  0  0  0  0  0  0
  1  2  1  0
  2  3  1  0
  2  4  1  0
  5  1  1  0
  6  5  1  0
  7  6  1  0
  8  7  2  0
  7  9  1  0
 10  8  1  0
  9 11  2  0
 12 10  1  0
 13 10  2  0
 11 14  1  0
 13 11  1  0
 15 12  1  0
 16 13  1  0
 14 17  2  0
 18 15  2  0
 15 19  1  0
 20 16  2  0
 17 20  1  0
 21 18  1  0
 19 22  1  0
 19 23  2  0
 24 21  2  0
 23 24  1  0
 25 24  1  0
  1 26  1  0
  1 27  1  0
  2 28  1  0
  3 29  1  0
  3 30  1  0
  3 31  1  0
  4 32  1  0
  4 33  1  0
  4 34  1  0
  5 35  1  0
  5 36  1  0
  6 37  1  0
 12 38  1  0
 17 39  1  0
 18 40  1  0
 20 41  1  0
 21 42  1  0
 22 43  1  0
 22 44  1  0
 22 45  1  0
 23 46  1  0
 25 47  1  0
 25 48  1  0
 25 49  1  0
M  CHG  1   2   1
M  END
>  <ScrubInfo>  (1) 
{"isomerGroup": 0, "isomerId": 0, "confId": 0, "nr_conformers:": 1, "nr_isomers:": 9}

$$$$
_i1
     RDKit          3D

 49 51  0  0  0  0  0  0  0  0999 V2000
    0.3310    0.7203   -0.1317 N   0  0  0  0  0  0  0  0  0  0  0  0
   -0.3514    0.9539   -1.3077 C   0  0  0  0  0  0  0  0  0  0  0  0
   -1.7237    1.1507   -1.3290 N   0  0  0  0  0  0  0  0  0  0  0  0
   -2.7207    0.5807   -0.5091 C   0  0  0  0  0  0  0  0  0  0  0  0
   -2.4945   -0.5754    0.2523 C   0  0  0  0  0  0  0  0  0  0  0  0
   -3.4896   -1.1103    1.0757 C   0  0  0  0  0  0  0  0  0  0  0  0
   -4.7427   -0.5027    1.1543 C   0  0  0  0  0  0  0  0  0  0  0  0
   -5.8059   -1.0549    2.0575 C   0  0  0  0  0  0  0  0  0  0  0  0
   -4.9760    0.6611    0.4150 C   0  0  0  0  0  0  0  0  0  0  0  0
   -3.9810    1.2086   -0.4149 C   0  0  0  0  0  0  0  0  0  0  0  0
   -4.2896    2.4663   -1.1844 C   0  0  0  0  0  0  0  0  0  0  0  0
    0.3601    1.0666   -2.4568 C   0  0  0  0  0  0  0  0  0  0  0  0
   -0.2183    1.3382   -3.6782 N   0  0  0  0  0  0  0  0  0  0  0  0
    0.5995    1.3583   -4.6783 C   0  0  0  0  0  0  0  0  0  0  0  0
    2.0624    1.0922   -4.5335 C   0  0  0  0  0  0  0  0  0  0  0  0
    2.6254    0.8551   -3.3963 N   0  0  0  0  0  0  0  0  0  0  0  0
    1.8445    0.8635   -2.2666 C   0  0  0  0  0  0  0  0  0  0  0  0
    2.4679    0.6883   -1.1476 N   0  0  0  0  0  0  0  0  0  0  0  0
    1.6864    0.7074   -0.0290 C   0  0  0  0  0  0  0  0  0  0  0  0
    2.2469    0.6734    1.1384 N   0  0  0  0  0  0  0  0  0  0  0  0
    3.7218    0.7859    1.1768 C   0  0  0  0  0  0  0  0  0  0  0  0
    4.3588   -0.5943    0.9798 C   0  0  0  0  0  0  0  0  0  0  0  0
    3.5526   -1.6123    1.7746 N   0  0  0  0  0  4  0  0  0  0  0  0
    3.5347   -2.9608    1.1344 C   0  0  0  0  0  0  0  0  0  0  0  0
    3.9230   -1.6599    3.2229 C   0  0  0  0  0  0  0  0  0  0  0  0
   -0.2025    0.9124    0.7074 H   0  0  0  0  0  0  0  0  0  0  0  0
   -2.0678    1.3993   -2.2586 H   0  0  0  0  0  0  0  0  0  0  0  0
   -1.5503   -1.1065    0.1865 H   0  0  0  0  0  0  0  0  0  0  0  0
   -3.2838   -2.0137    1.6451 H   0  0  0  0  0  0  0  0  0  0  0  0
   -5.7369   -0.5884    3.0450 H   0  0  0  0  0  0  0  0  0  0  0  0
   -6.8032   -0.8685    1.6455 H   0  0  0  0  0  0  0  0  0  0  0  0
   -5.6993   -2.1389    2.1704 H   0  0  0  0  0  0  0  0  0  0  0  0
   -5.9466    1.1505    0.4867 H   0  0  0  0  0  0  0  0  0  0  0  0
   -5.2747    2.8674   -0.9234 H   0  0  0  0  0  0  0  0  0  0  0  0
   -3.5517    3.2429   -0.9586 H   0  0  0  0  0  0  0  0  0  0  0  0
   -4.2878    2.2611   -2.2596 H   0  0  0  0  0  0  0  0  0  0  0  0
    0.2574    1.5694   -5.7033 H   0  0  0  0  0  0  0  0  0  0  0  0
    2.6378    1.1071   -5.4719 H   0  0  0  0  0  0  0  0  0  0  0  0
    3.9909    1.1755    2.1653 H   0  0  0  0  0  0  0  0  0  0  0  0
    4.1165    1.5137    0.4580 H   0  0  0  0  0  0  0  0  0  0  0  0
    5.4006   -0.6334    1.3134 H   0  0  0  0  0  0  0  0  0  0  0  0
    4.3096   -0.8921   -0.0723 H   0  0  0  0  0  0  0  0  0  0  0  0
    2.5918   -1.2267    1.7277 H   0  0  0  0  0  0  0  0  0  0  0  0
    4.5563   -3.3492    1.1124 H   0  0  0  0  0  0  0  0  0  0  0  0
    2.8819   -3.6107    1.7232 H   0  0  0  0  0  0  0  0  0  0  0  0
    3.1326   -2.8558    0.1231 H   0  0  0  0  0  0  0  0  0  0  0  0
    4.9494   -2.0266    3.3080 H   0  0  0  0  0  0  0  0  0  0  0  0
    3.8316   -0.6551    3.6417 H   0  0  0  0  0  0  0  0  0  0  0  0
    3.2267   -2.3336    3.7294 H   0  0  0  0  0  0  0  0  0  0  0  0
  1  2  1  0
  2  3  1  0
  3  4  1  0
  4  5  2  0
  5  6  1  0
  6  7  2  0
  7  8  1  0
  7  9  1  0
  9 10  2  0
 10 11  1  0
  2 12  2  0
 12 13  1  0
 13 14  2  0
 14 15  1  0
 15 16  2  0
 16 17  1  0
 17 18  2  0
 18 19  1  0
 19 20  2  3
 20 21  1  0
 21 22  1  0
 22 23  1  0
 23 24  1  0
 23 25  1  0
 19  1  1  0
 10  4  1  0
 17 12  1  0
  1 26  1  0
  3 27  1  0
  5 28  1  0
  6 29  1  0
  8 30  1  0
  8 31  1  0
  8 32  1  0
  9 33  1  0
 11 34  1  0
 11 35  1  0
 11 36  1  0
 14 37  1  0
 15 38  1  0
 21 39  1  0
 21 40  1  0
 22 41  1  0
 22 42  1  0
 23 43  1  0
 24 44  1  0
 24 45  1  0
 24 46  1  0
 25 47  1  0
 25 48  1  0
 25 49  1  0
M  CHG  1  23   1
M  END
>  <ScrubInfo>  (2) 
{"isomerGroup": 0, "isomerId": 1, "confId": 0, "nr_conformers:": 1, "nr_isomers:": 9}

$$$$
_i2
     RDKit          3D

 49 51  0  0  0  0  0  0  0  0999 V2000
   -0.6541    1.0895    0.7305 N   0  0  0  0  0  0  0  0  0  0  0  0
   -1.7468    0.4325    1.1911 C   0  0  0  0  0  0  0  0  0  0  0  0
   -2.8474    1.1890    1.4602 N   0  0  0  0  0  0  0  0  0  0  0  0
   -3.4586    2.0464    0.4509 C   0  0  0  0  0  0  0  0  0  0  0  0
   -3.8907    1.3003   -0.8341 C   0  0  0  0  0  0  0  0  0  0  0  0
   -4.9974    0.2655   -0.6730 N   0  0  0  0  0  4  0  0  0  0  0  0
   -4.5524   -1.0738   -0.1400 C   0  0  0  0  0  0  0  0  0  0  0  0
   -6.2367    0.7658    0.0070 C   0  0  0  0  0  0  0  0  0  0  0  0
   -1.8072   -0.8543    1.3377 N   0  0  0  0  0  0  0  0  0  0  0  0
   -0.6339   -1.5684    0.9972 C   0  0  0  0  0  0  0  0  0  0  0  0
   -0.7716   -2.9115    1.0906 N   0  0  0  0  0  0  0  0  0  0  0  0
    0.3312   -3.6326    0.7689 C   0  0  0  0  0  0  0  0  0  0  0  0
    1.5143   -3.0473    0.3409 C   0  0  0  0  0  0  0  0  0  0  0  0
    1.6550   -1.7102    0.2105 N   0  0  0  0  0  0  0  0  0  0  0  0
    0.5667   -0.9837    0.5551 C   0  0  0  0  0  0  0  0  0  0  0  0
    0.5616    0.5102    0.4401 C   0  0  0  0  0  0  0  0  0  0  0  0
    1.5289    1.3283    0.1183 N   0  0  0  0  0  0  0  0  0  0  0  0
    2.8199    0.8653   -0.1743 C   0  0  0  0  0  0  0  0  0  0  0  0
    3.1630    0.6069   -1.5059 C   0  0  0  0  0  0  0  0  0  0  0  0
    4.4490    0.1813   -1.8441 C   0  0  0  0  0  0  0  0  0  0  0  0
    5.4234    0.0305   -0.8541 C   0  0  0  0  0  0  0  0  0  0  0  0
    6.7966   -0.4610   -1.2056 C   0  0  0  0  0  0  0  0  0  0  0  0
    5.0864    0.2983    0.4792 C   0  0  0  0  0  0  0  0  0  0  0  0
    3.7974    0.7369    0.8276 C   0  0  0  0  0  0  0  0  0  0  0  0
    3.4756    1.0297    2.2651 C   0  0  0  0  0  0  0  0  0  0  0  0
   -0.5974    2.0916    0.8593 H   0  0  0  0  0  0  0  0  0  0  0  0
   -3.5283    0.6428    1.9826 H   0  0  0  0  0  0  0  0  0  0  0  0
   -4.3165    2.5587    0.8990 H   0  0  0  0  0  0  0  0  0  0  0  0
   -2.7487    2.8342    0.1724 H   0  0  0  0  0  0  0  0  0  0  0  0
   -3.0460    0.7890   -1.3086 H   0  0  0  0  0  0  0  0  0  0  0  0
   -4.2796    2.0304   -1.5533 H   0  0  0  0  0  0  0  0  0  0  0  0
   -5.2830    0.0565   -1.6393 H   0  0  0  0  0  0  0  0  0  0  0  0
   -5.3398   -1.7954   -0.3769 H   0  0  0  0  0  0  0  0  0  0  0  0
   -3.6315   -1.3610   -0.6517 H   0  0  0  0  0  0  0  0  0  0  0  0
   -4.4311   -1.0064    0.9409 H   0  0  0  0  0  0  0  0  0  0  0  0
   -7.0224    0.0183   -0.1319 H   0  0  0  0  0  0  0  0  0  0  0  0
   -6.5288    1.7064   -0.4668 H   0  0  0  0  0  0  0  0  0  0  0  0
   -6.0247    0.9073    1.0695 H   0  0  0  0  0  0  0  0  0  0  0  0
    0.2388   -4.7097    0.8648 H   0  0  0  0  0  0  0  0  0  0  0  0
    2.3850   -3.6437    0.0877 H   0  0  0  0  0  0  0  0  0  0  0  0
    2.4190    0.7338   -2.2859 H   0  0  0  0  0  0  0  0  0  0  0  0
    4.6848   -0.0269   -2.8848 H   0  0  0  0  0  0  0  0  0  0  0  0
    7.0705   -0.1628   -2.2230 H   0  0  0  0  0  0  0  0  0  0  0  0
    7.5473   -0.0372   -0.5303 H   0  0  0  0  0  0  0  0  0  0  0  0
    6.8322   -1.5524   -1.1354 H   0  0  0  0  0  0  0  0  0  0  0  0
    5.8393    0.1724    1.2552 H   0  0  0  0  0  0  0  0  0  0  0  0
    4.3826    1.0696    2.8777 H   0  0  0  0  0  0  0  0  0  0  0  0
    2.9803    2.0015    2.3599 H   0  0  0  0  0  0  0  0  0  0  0  0
    2.8257    0.2494    2.6731 H   0  0  0  0  0  0  0  0  0  0  0  0
  1  2  1  0
  2  3  1  0
  3  4  1  0
  4  5  1  0
  5  6  1  0
  6  7  1  0
  6  8  1  0
  2  9  2  0
  9 10  1  0
 10 11  2  0
 11 12  1  0
 12 13  2  0
 13 14  1  0
 14 15  2  0
 15 16  1  0
 16 17  2  3
 17 18  1  0
 18 19  2  0
 19 20  1  0
 20 21  2  0
 21 22  1  0
 21 23  1  0
 23 24  2  0
 24 25  1  0
 16  1  1  0
 24 18  1  0
 15 10  1  0
  1 26  1  0
  3 27  1  0
  4 28  1  0
  4 29  1  0
  5 30  1  0
  5 31  1  0
  6 32  1  0
  7 33  1  0
  7 34  1  0
  7 35  1  0
  8 36  1  0
  8 37  1  0
  8 38  1  0
 12 39  1  0
 13 40  1  0
 19 41  1  0
 20 42  1  0
 22 43  1  0
 22 44  1  0
 22 45  1  0
 23 46  1  0
 25 47  1  0
 25 48  1  0
 25 49  1  0
M  CHG  1   6   1
M  END
>  <ScrubInfo>  (3) 
{"isomerGroup": 0, "isomerId": 2, "confId": 0, "nr_conformers:": 1, "nr_isomers:": 9}

$$$$
_i3
     RDKit          3D

 49 51  0  0  0  0  0  0  0  0999 V2000
    1.4566   -2.7321   -0.1053 N   0  0  0  0  0  0  0  0  0  0  0  0
    1.3139   -1.4168    0.2078 C   0  0  0  0  0  0  0  0  0  0  0  0
    2.2319   -0.5196    0.2138 N   0  0  0  0  0  0  0  0  0  0  0  0
    3.6116   -0.8483   -0.1353 C   0  0  0  0  0  0  0  0  0  0  0  0
    4.4619    0.3704    0.2780 C   0  0  0  0  0  0  0  0  0  0  0  0
    3.6114    1.6210    0.1190 N   0  0  0  0  0  4  0  0  0  0  0  0
    3.5710    2.1502   -1.2765 C   0  0  0  0  0  0  0  0  0  0  0  0
    3.8914    2.6719    1.1389 C   0  0  0  0  0  0  0  0  0  0  0  0
    0.1038   -0.8838    0.5639 N   0  0  0  0  0  0  0  0  0  0  0  0
   -0.9560   -1.6465    0.6254 C   0  0  0  0  0  0  0  0  0  0  0  0
   -2.2007   -1.1674    1.0017 N   0  0  0  0  0  0  0  0  0  0  0  0
   -2.6284    0.1573    0.7668 C   0  0  0  0  0  0  0  0  0  0  0  0
   -3.1479    0.8703    1.8571 C   0  0  0  0  0  0  0  0  0  0  0  0
   -3.6623    2.1584    1.7005 C   0  0  0  0  0  0  0  0  0  0  0  0
   -3.6834    2.7574    0.4406 C   0  0  0  0  0  0  0  0  0  0  0  0
   -4.2673    4.1273    0.2588 C   0  0  0  0  0  0  0  0  0  0  0  0
   -3.2211    2.0295   -0.6627 C   0  0  0  0  0  0  0  0  0  0  0  0
   -2.7136    0.7241   -0.5193 C   0  0  0  0  0  0  0  0  0  0  0  0
   -2.2671   -0.0096   -1.7535 C   0  0  0  0  0  0  0  0  0  0  0  0
   -0.8811   -3.0999    0.3086 C   0  0  0  0  0  0  0  0  0  0  0  0
   -2.0193   -3.8399    0.3706 N   0  0  0  0  0  0  0  0  0  0  0  0
   -1.8371   -5.1420    0.0526 C   0  0  0  0  0  0  0  0  0  0  0  0
   -0.5962   -5.6548   -0.3098 C   0  0  0  0  0  0  0  0  0  0  0  0
    0.5282   -4.8923   -0.3750 N   0  0  0  0  0  0  0  0  0  0  0  0
    0.3676   -3.5898   -0.0571 C   0  0  0  0  0  0  0  0  0  0  0  0
    2.3260   -3.1572   -0.3750 H   0  0  0  0  0  0  0  0  0  0  0  0
    3.9782   -1.7423    0.3802 H   0  0  0  0  0  0  0  0  0  0  0  0
    3.6935   -1.0042   -1.2166 H   0  0  0  0  0  0  0  0  0  0  0  0
    5.3794    0.4795   -0.3080 H   0  0  0  0  0  0  0  0  0  0  0  0
    4.7148    0.2891    1.3409 H   0  0  0  0  0  0  0  0  0  0  0  0
    2.6534    1.2521    0.3150 H   0  0  0  0  0  0  0  0  0  0  0  0
    2.8287    2.9519   -1.3162 H   0  0  0  0  0  0  0  0  0  0  0  0
    4.5646    2.5269   -1.5332 H   0  0  0  0  0  0  0  0  0  0  0  0
    3.2767    1.3415   -1.9498 H   0  0  0  0  0  0  0  0  0  0  0  0
    3.1740    3.4851    1.0005 H   0  0  0  0  0  0  0  0  0  0  0  0
    4.9159    3.0265    0.9987 H   0  0  0  0  0  0  0  0  0  0  0  0
    3.7615    2.2320    2.1312 H   0  0  0  0  0  0  0  0  0  0  0  0
   -2.9615   -1.8363    0.8771 H   0  0  0  0  0  0  0  0  0  0  0  0
   -3.1402    0.4212    2.8479 H   0  0  0  0  0  0  0  0  0  0  0  0
   -4.0499    2.6858    2.5693 H   0  0  0  0  0  0  0  0  0  0  0  0
   -3.7787    4.6526   -0.5686 H   0  0  0  0  0  0  0  0  0  0  0  0
   -4.1248    4.7354    1.1582 H   0  0  0  0  0  0  0  0  0  0  0  0
   -5.3386    4.0526    0.0481 H   0  0  0  0  0  0  0  0  0  0  0  0
   -3.2755    2.4791   -1.6532 H   0  0  0  0  0  0  0  0  0  0  0  0
   -1.1775    0.0265   -1.8438 H   0  0  0  0  0  0  0  0  0  0  0  0
   -2.6960    0.4374   -2.6571 H   0  0  0  0  0  0  0  0  0  0  0  0
   -2.6005   -1.0520   -1.7328 H   0  0  0  0  0  0  0  0  0  0  0  0
   -2.7185   -5.7743    0.0947 H   0  0  0  0  0  0  0  0  0  0  0  0
   -0.4727   -6.7039   -0.5611 H   0  0  0  0  0  0  0  0  0  0  0  0
  1  2  1  0
  2  3  2  3
  3  4  1  0
  4  5  1  0
  5  6  1  0
  6  7  1  0
  6  8  1  0
  2  9  1  0
  9 10  2  0
 10 11  1  0
 11 12  1  0
 12 13  2  0
 13 14  1  0
 14 15  2  0
 15 16  1  0
 15 17  1  0
 17 18  2  0
 18 19  1  0
 10 20  1  0
 20 21  2  0
 21 22  1  0
 22 23  2  0
 23 24  1  0
 24 25  2  0
 25  1  1  0
 18 12  1  0
 25 20  1  0
  1 26  1  0
  4 27  1  0
  4 28  1  0
  5 29  1  0
  5 30  1  0
  6 31  1  0
  7 32  1  0
  7 33  1  0
  7 34  1  0
  8 35  1  0
  8 36  1  0
  8 37  1  0
 11 38  1  0
 13 39  1  0
 14 40  1  0
 16 41  1  0
 16 42  1  0
 16 43  1  0
 17 44  1  0
 19 45  1  0
 19 46  1  0
 19 47  1  0
 22 48  1  0
 23 49  1  0
M  CHG  1   6   1
M  END
>  <ScrubInfo>  (4) 
{"isomerGroup": 0, "isomerId": 3, "confId": 0, "nr_conformers:": 1, "nr_isomers:": 9}

$$$$
_i4
     RDKit          3D

 49 51  0  0  0  0  0  0  0  0999 V2000
    1.6470    2.0307   -0.1426 N   0  0  0  0  0  0  0  0  0  0  0  0
    0.9222    0.9225    0.1168 C   0  0  0  0  0  0  0  0  0  0  0  0
    1.4418    0.0018    0.9802 N   0  0  0  0  0  0  0  0  0  0  0  0
    2.1014    0.3588    2.2374 C   0  0  0  0  0  0  0  0  0  0  0  0
    2.7810   -0.9037    2.8083 C   0  0  0  0  0  0  0  0  0  0  0  0
    3.4673   -1.6610    1.6743 N   0  0  0  0  0  4  0  0  0  0  0  0
    4.8173   -1.1114    1.3213 C   0  0  0  0  0  0  0  0  0  0  0  0
    3.5049   -3.1423    1.9025 C   0  0  0  0  0  0  0  0  0  0  0  0
   -0.2283    0.6308   -0.3989 N   0  0  0  0  0  0  0  0  0  0  0  0
   -0.8109    1.5255   -1.2877 C   0  0  0  0  0  0  0  0  0  0  0  0
   -1.9840    1.2826   -1.7912 N   0  0  0  0  0  0  0  0  0  0  0  0
   -2.6626    0.1075   -1.4284 C   0  0  0  0  0  0  0  0  0  0  0  0
   -2.4554   -1.0593   -2.1724 C   0  0  0  0  0  0  0  0  0  0  0  0
   -3.1316   -2.2396   -1.8576 C   0  0  0  0  0  0  0  0  0  0  0  0
   -4.0463   -2.2659   -0.8012 C   0  0  0  0  0  0  0  0  0  0  0  0
   -4.7639   -3.5346   -0.4462 C   0  0  0  0  0  0  0  0  0  0  0  0
   -4.2595   -1.0987   -0.0556 C   0  0  0  0  0  0  0  0  0  0  0  0
   -3.5882    0.0950   -0.3709 C   0  0  0  0  0  0  0  0  0  0  0  0
   -3.8609    1.3410    0.4225 C   0  0  0  0  0  0  0  0  0  0  0  0
   -0.0771    2.7711   -1.6603 C   0  0  0  0  0  0  0  0  0  0  0  0
   -0.6135    3.6434   -2.5533 N   0  0  0  0  0  0  0  0  0  0  0  0
    0.1505    4.7243   -2.8185 C   0  0  0  0  0  0  0  0  0  0  0  0
    1.3889    4.9208   -2.2236 C   0  0  0  0  0  0  0  0  0  0  0  0
    1.9248    4.0468   -1.3320 N   0  0  0  0  0  0  0  0  0  0  0  0
    1.1643    2.9618   -1.0555 C   0  0  0  0  0  0  0  0  0  0  0  0
    2.5702    2.2274    0.1999 H   0  0  0  0  0  0  0  0  0  0  0  0
    0.6777   -0.6678    1.1276 H   0  0  0  0  0  0  0  0  0  0  0  0
    2.8632    1.1268    2.0697 H   0  0  0  0  0  0  0  0  0  0  0  0
    1.3739    0.7547    2.9537 H   0  0  0  0  0  0  0  0  0  0  0  0
    3.5209   -0.6791    3.5827 H   0  0  0  0  0  0  0  0  0  0  0  0
    2.0151   -1.5715    3.2182 H   0  0  0  0  0  0  0  0  0  0  0  0
    2.8588   -1.4927    0.8507 H   0  0  0  0  0  0  0  0  0  0  0  0
    5.4853   -1.2560    2.1744 H   0  0  0  0  0  0  0  0  0  0  0  0
    5.1838   -1.6484    0.4424 H   0  0  0  0  0  0  0  0  0  0  0  0
    4.7084   -0.0502    1.0857 H   0  0  0  0  0  0  0  0  0  0  0  0
    4.1018   -3.3399    2.7966 H   0  0  0  0  0  0  0  0  0  0  0  0
    2.4776   -3.4936    2.0299 H   0  0  0  0  0  0  0  0  0  0  0  0
    3.9489   -3.6128    1.0213 H   0  0  0  0  0  0  0  0  0  0  0  0
   -1.7651   -1.0391   -3.0107 H   0  0  0  0  0  0  0  0  0  0  0  0
   -2.9519   -3.1300   -2.4549 H   0  0  0  0  0  0  0  0  0  0  0  0
   -4.8964   -4.1699   -1.3283 H   0  0  0  0  0  0  0  0  0  0  0  0
   -4.1934   -4.0887    0.3055 H   0  0  0  0  0  0  0  0  0  0  0  0
   -5.7613   -3.3204   -0.0483 H   0  0  0  0  0  0  0  0  0  0  0  0
   -4.9722   -1.1127    0.7670 H   0  0  0  0  0  0  0  0  0  0  0  0
   -4.1440    2.1643   -0.2415 H   0  0  0  0  0  0  0  0  0  0  0  0
   -4.6848    1.1940    1.1289 H   0  0  0  0  0  0  0  0  0  0  0  0
   -2.9739    1.6256    0.9974 H   0  0  0  0  0  0  0  0  0  0  0  0
   -0.2599    5.4354   -3.5281 H   0  0  0  0  0  0  0  0  0  0  0  0
    1.9881    5.7967   -2.4512 H   0  0  0  0  0  0  0  0  0  0  0  0
  1  2  1  0
  2  3  1  0
  3  4  1  0
  4  5  1  0
  5  6  1  0
  6  7  1  0
  6  8  1  0
  2  9  2  0
  9 10  1  0
 10 11  2  3
 11 12  1  0
 12 13  2  0
 13 14  1  0
 14 15  2  0
 15 16  1  0
 15 17  1  0
 17 18  2  0
 18 19  1  0
 10 20  1  0
 20 21  2  0
 21 22  1  0
 22 23  2  0
 23 24  1  0
 24 25  2  0
 25  1  1  0
 18 12  1  0
 25 20  1  0
  1 26  1  0
  3 27  1  0
  4 28  1  0
  4 29  1  0
  5 30  1  0
  5 31  1  0
  6 32  1  0
  7 33  1  0
  7 34  1  0
  7 35  1  0
  8 36  1  0
  8 37  1  0
  8 38  1  0
 13 39  1  0
 14 40  1  0
 16 41  1  0
 16 42  1  0
 16 43  1  0
 17 44  1  0
 19 45  1  0
 19 46  1  0
 19 47  1  0
 22 48  1  0
 23 49  1  0
M  CHG  1   6   1
M  END
>  <ScrubInfo>  (5) 
{"isomerGroup": 0, "isomerId": 4, "confId": 0, "nr_conformers:": 1, "nr_isomers:": 9}

$$$$
_i5
     RDKit          3D

 49 51  0  0  0  0  0  0  0  0999 V2000
    1.1699   -4.2078    0.3066 N   0  0  0  0  0  0  0  0  0  0  0  0
    0.2909   -5.2566    0.2444 C   0  0  0  0  0  0  0  0  0  0  0  0
   -1.0364   -5.0495    0.2402 C   0  0  0  0  0  0  0  0  0  0  0  0
   -1.6195   -3.7981    0.3020 N   0  0  0  0  0  0  0  0  0  0  0  0
   -0.8041   -2.7758    0.3665 C   0  0  0  0  0  0  0  0  0  0  0  0
   -1.3693   -1.3839    0.4453 C   0  0  0  0  0  0  0  0  0  0  0  0
   -2.7497   -1.2957    0.5007 N   0  0  0  0  0  0  0  0  0  0  0  0
   -3.4784   -0.1552    0.1034 C   0  0  0  0  0  0  0  0  0  0  0  0
   -4.2746   -0.2493   -1.0511 C   0  0  0  0  0  0  0  0  0  0  0  0
   -4.9712    0.8561   -1.5442 C   0  0  0  0  0  0  0  0  0  0  0  0
   -4.8714    2.0915   -0.9049 C   0  0  0  0  0  0  0  0  0  0  0  0
   -5.6387    3.2769   -1.4109 C   0  0  0  0  0  0  0  0  0  0  0  0
   -4.0918    2.1919    0.2530 C   0  0  0  0  0  0  0  0  0  0  0  0
   -3.3977    1.0808    0.7704 C   0  0  0  0  0  0  0  0  0  0  0  0
   -2.6040    1.2755    2.0335 C   0  0  0  0  0  0  0  0  0  0  0  0
   -0.5262   -0.4035    0.4456 N   0  0  0  0  0  0  0  0  0  0  0  0
    0.8136   -0.6451    0.3956 C   0  0  0  0  0  0  0  0  0  0  0  0
    1.5246    0.4258    0.3821 N   0  0  0  0  0  0  0  0  0  0  0  0
    2.9745    0.3093    0.3285 C   0  0  0  0  0  0  0  0  0  0  0  0
    3.5417    1.7350    0.3088 C   0  0  0  0  0  0  0  0  0  0  0  0
    5.0553    1.7974    0.2502 N   0  0  0  0  0  4  0  0  0  0  0  0
    5.6312    1.2538   -1.0241 C   0  0  0  0  0  0  0  0  0  0  0  0
    5.7286    1.2455    1.4720 C   0  0  0  0  0  0  0  0  0  0  0  0
    1.4443   -1.8615    0.3653 N   0  0  0  0  0  0  0  0  0  0  0  0
    0.7015   -2.9187    0.3491 C   0  0  0  0  0  0  0  0  0  0  0  0
    2.1641   -4.3899    0.2794 H   0  0  0  0  0  0  0  0  0  0  0  0
    0.7299   -6.2481    0.1974 H   0  0  0  0  0  0  0  0  0  0  0  0
   -1.7221   -5.8929    0.1901 H   0  0  0  0  0  0  0  0  0  0  0  0
   -3.2102   -2.1719    0.2556 H   0  0  0  0  0  0  0  0  0  0  0  0
   -4.3533   -1.1914   -1.5887 H   0  0  0  0  0  0  0  0  0  0  0  0
   -5.5851    0.7456   -2.4353 H   0  0  0  0  0  0  0  0  0  0  0  0
   -5.7733    3.2213   -2.4963 H   0  0  0  0  0  0  0  0  0  0  0  0
   -5.1031    4.2081   -1.1980 H   0  0  0  0  0  0  0  0  0  0  0  0
   -6.6228    3.3170   -0.9341 H   0  0  0  0  0  0  0  0  0  0  0  0
   -4.0291    3.1481    0.7707 H   0  0  0  0  0  0  0  0  0  0  0  0
   -1.6230    1.7014    1.8029 H   0  0  0  0  0  0  0  0  0  0  0  0
   -2.4719    0.3380    2.5820 H   0  0  0  0  0  0  0  0  0  0  0  0
   -3.1271    1.9590    2.7117 H   0  0  0  0  0  0  0  0  0  0  0  0
    3.3464   -0.2282    1.2076 H   0  0  0  0  0  0  0  0  0  0  0  0
    3.2815   -0.2263   -0.5765 H   0  0  0  0  0  0  0  0  0  0  0  0
    3.2398    2.2892    1.2057 H   0  0  0  0  0  0  0  0  0  0  0  0
    3.1712    2.2924   -0.5598 H   0  0  0  0  0  0  0  0  0  0  0  0
    5.2674    2.8039    0.2451 H   0  0  0  0  0  0  0  0  0  0  0  0
    6.6903    1.5239   -1.0543 H   0  0  0  0  0  0  0  0  0  0  0  0
    5.1057    1.7167   -1.8633 H   0  0  0  0  0  0  0  0  0  0  0  0
    5.5133    0.1677   -1.0339 H   0  0  0  0  0  0  0  0  0  0  0  0
    5.2701    1.7026    2.3526 H   0  0  0  0  0  0  0  0  0  0  0  0
    5.6114    0.1593    1.4837 H   0  0  0  0  0  0  0  0  0  0  0  0
    6.7868    1.5157    1.4215 H   0  0  0  0  0  0  0  0  0  0  0  0
  1  2  1  0
  2  3  2  0
  3  4  1  0
  4  5  2  0
  5  6  1  0
  6  7  1  0
  7  8  1  0
  8  9  2  0
  9 10  1  0
 10 11  2  0
 11 12  1  0
 11 13  1  0
 13 14  2  0
 14 15  1  0
  6 16  2  0
 16 17  1  0
 17 18  2  3
 18 19  1  0
 19 20  1  0
 20 21  1  0
 21 22  1  0
 21 23  1  0
 17 24  1  0
 24 25  2  0
 25  1  1  0
 25  5  1  0
 14  8  1  0
  1 26  1  0
  2 27  1  0
  3 28  1  0
  7 29  1  0
  9 30  1  0
 10 31  1  0
 12 32  1  0
 12 33  1  0
 12 34  1  0
 13 35  1  0
 15 36  1  0
 15 37  1  0
 15 38  1  0
 19 39  1  0
 19 40  1  0
 20 41  1  0
 20 42  1  0
 21 43  1  0
 22 44  1  0
 22 45  1  0
 22 46  1  0
 23 47  1  0
 23 48  1  0
 23 49  1  0
M  CHG  1  21   1
M  END
>  <ScrubInfo>  (6) 
{"isomerGroup": 0, "isomerId": 5, "confId": 0, "nr_conformers:": 1, "nr_isomers:": 9}

$$$$
_i6
     RDKit          3D

 49 51  0  0  0  0  0  0  0  0999 V2000
   -1.1630   -4.4130    0.3171 N   0  0  0  0  0  0  0  0  0  0  0  0
   -0.3787   -5.5357    0.3080 C   0  0  0  0  0  0  0  0  0  0  0  0
    0.9566   -5.4445    0.1996 C   0  0  0  0  0  0  0  0  0  0  0  0
    1.6366   -4.2490    0.0893 N   0  0  0  0  0  0  0  0  0  0  0  0
    0.9207   -3.1545    0.1026 C   0  0  0  0  0  0  0  0  0  0  0  0
    1.5099   -1.7832   -0.0149 C   0  0  0  0  0  0  0  0  0  0  0  0
    2.7907   -1.6655   -0.1904 N   0  0  0  0  0  0  0  0  0  0  0  0
    3.3505   -0.3826   -0.3022 C   0  0  0  0  0  0  0  0  0  0  0  0
    3.4663    0.2030   -1.5678 C   0  0  0  0  0  0  0  0  0  0  0  0
    4.0368    1.4679   -1.7224 C   0  0  0  0  0  0  0  0  0  0  0  0
    4.5218    2.1616   -0.6104 C   0  0  0  0  0  0  0  0  0  0  0  0
    5.1173    3.5297   -0.7661 C   0  0  0  0  0  0  0  0  0  0  0  0
    4.4118    1.5768    0.6583 C   0  0  0  0  0  0  0  0  0  0  0  0
    3.8469    0.3004    0.8214 C   0  0  0  0  0  0  0  0  0  0  0  0
    3.7699   -0.3146    2.1899 C   0  0  0  0  0  0  0  0  0  0  0  0
    0.6865   -0.6897    0.0608 N   0  0  0  0  0  0  0  0  0  0  0  0
   -0.5895   -0.8592    0.1973 C   0  0  0  0  0  0  0  0  0  0  0  0
   -1.3144    0.2952    0.2712 N   0  0  0  0  0  0  0  0  0  0  0  0
   -2.7054    0.3764   -0.1141 C   0  0  0  0  0  0  0  0  0  0  0  0
   -3.3414    1.6556    0.4606 C   0  0  0  0  0  0  0  0  0  0  0  0
   -4.7669    1.8757   -0.0249 N   0  0  0  0  0  4  0  0  0  0  0  0
   -5.7415    0.8569    0.5048 C   0  0  0  0  0  0  0  0  0  0  0  0
   -5.2325    3.2756    0.2901 C   0  0  0  0  0  0  0  0  0  0  0  0
   -1.2467   -2.0554    0.2650 N   0  0  0  0  0  0  0  0  0  0  0  0
   -0.5857   -3.1695    0.2353 C   0  0  0  0  0  0  0  0  0  0  0  0
   -2.1615   -4.5063    0.4373 H   0  0  0  0  0  0  0  0  0  0  0  0
   -0.8957   -6.4857    0.3948 H   0  0  0  0  0  0  0  0  0  0  0  0
    1.5726   -6.3410    0.1937 H   0  0  0  0  0  0  0  0  0  0  0  0
    3.1151   -0.3397   -2.4407 H   0  0  0  0  0  0  0  0  0  0  0  0
    4.1141    1.8980   -2.7180 H   0  0  0  0  0  0  0  0  0  0  0  0
    5.8997    3.7019   -0.0196 H   0  0  0  0  0  0  0  0  0  0  0  0
    5.5789    3.6462   -1.7523 H   0  0  0  0  0  0  0  0  0  0  0  0
    4.3402    4.2910   -0.6477 H   0  0  0  0  0  0  0  0  0  0  0  0
    4.7876    2.1126    1.5281 H   0  0  0  0  0  0  0  0  0  0  0  0
    2.7281   -0.3729    2.5204 H   0  0  0  0  0  0  0  0  0  0  0  0
    4.3238    0.2771    2.9265 H   0  0  0  0  0  0  0  0  0  0  0  0
    4.2070   -1.3185    2.1852 H   0  0  0  0  0  0  0  0  0  0  0  0
   -0.7141    1.0773    0.0166 H   0  0  0  0  0  0  0  0  0  0  0  0
   -3.2538   -0.4940    0.2598 H   0  0  0  0  0  0  0  0  0  0  0  0
   -2.7811    0.3769   -1.2073 H   0  0  0  0  0  0  0  0  0  0  0  0
   -3.3628    1.6383    1.5565 H   0  0  0  0  0  0  0  0  0  0  0  0
   -2.7620    2.5287    0.1380 H   0  0  0  0  0  0  0  0  0  0  0  0
   -4.7678    1.7974   -1.0513 H   0  0  0  0  0  0  0  0  0  0  0  0
   -6.7370    1.1131    0.1321 H   0  0  0  0  0  0  0  0  0  0  0  0
   -5.4559   -0.1257    0.1241 H   0  0  0  0  0  0  0  0  0  0  0  0
   -5.7150    0.8827    1.5973 H   0  0  0  0  0  0  0  0  0  0  0  0
   -4.5424    3.9777   -0.1851 H   0  0  0  0  0  0  0  0  0  0  0  0
   -5.2401    3.4039    1.3758 H   0  0  0  0  0  0  0  0  0  0  0  0
   -6.2344    3.4025   -0.1286 H   0  0  0  0  0  0  0  0  0  0  0  0
  1  2  1  0
  2  3  2  0
  3  4  1  0
  4  5  2  0
  5  6  1  0
  6  7  2  3
  7  8  1  0
  8  9  2  0
  9 10  1  0
 10 11  2  0
 11 12  1  0
 11 13  1  0
 13 14  2  0
 14 15  1  0
  6 16  1  0
 16 17  2  0
 17 18  1  0
 18 19  1  0
 19 20  1  0
 20 21  1  0
 21 22  1  0
 21 23  1  0
 17 24  1  0
 24 25  2  0
 25  1  1  0
 25  5  1  0
 14  8  1  0
  1 26  1  0
  2 27  1  0
  3 28  1  0
  9 29  1  0
 10 30  1  0
 12 31  1  0
 12 32  1  0
 12 33  1  0
 13 34  1  0
 15 35  1  0
 15 36  1  0
 15 37  1  0
 18 38  1  0
 19 39  1  0
 19 40  1  0
 20 41  1  0
 20 42  1  0
 21 43  1  0
 22 44  1  0
 22 45  1  0
 22 46  1  0
 23 47  1  0
 23 48  1  0
 23 49  1  0
M  CHG  1  21   1
M  END
>  <ScrubInfo>  (7) 
{"isomerGroup": 0, "isomerId": 6, "confId": 0, "nr_conformers:": 1, "nr_isomers:": 9}

$$$$
_i7
     RDKit          3D

 49 51  0  0  0  0  0  0  0  0999 V2000
    1.3548   -1.9981   -0.4694 N   0  0  0  0  0  0  0  0  0  0  0  0
    0.8101   -0.7942   -0.1227 C   0  0  0  0  0  0  0  0  0  0  0  0
    1.4132    0.3440   -0.0242 N   0  0  0  0  0  0  0  0  0  0  0  0
    2.8430    0.4121   -0.3026 C   0  0  0  0  0  0  0  0  0  0  0  0
    3.2902    1.8704   -0.1084 C   0  0  0  0  0  0  0  0  0  0  0  0
    4.7265    2.0970   -0.5456 N   0  0  0  0  0  4  0  0  0  0  0  0
    5.7340    1.4154    0.3379 C   0  0  0  0  0  0  0  0  0  0  0  0
    5.0226    3.5703   -0.6633 C   0  0  0  0  0  0  0  0  0  0  0  0
   -0.5304   -0.8517    0.1408 N   0  0  0  0  0  0  0  0  0  0  0  0
   -1.3896   -1.9354    0.1046 C   0  0  0  0  0  0  0  0  0  0  0  0
   -2.6642   -1.9140    0.3690 N   0  0  0  0  0  0  0  0  0  0  0  0
   -3.2736   -0.7043    0.7328 C   0  0  0  0  0  0  0  0  0  0  0  0
   -3.3131   -0.3411    2.0827 C   0  0  0  0  0  0  0  0  0  0  0  0
   -3.8924    0.8645    2.4808 C   0  0  0  0  0  0  0  0  0  0  0  0
   -4.4422    1.7287    1.5298 C   0  0  0  0  0  0  0  0  0  0  0  0
   -5.1082    3.0039    1.9569 C   0  0  0  0  0  0  0  0  0  0  0  0
   -4.4352    1.3505    0.1805 C   0  0  0  0  0  0  0  0  0  0  0  0
   -3.8614    0.1352   -0.2277 C   0  0  0  0  0  0  0  0  0  0  0  0
   -3.8815   -0.2539   -1.6790 C   0  0  0  0  0  0  0  0  0  0  0  0
   -0.7483   -3.2299   -0.2820 C   0  0  0  0  0  0  0  0  0  0  0  0
   -1.4946   -4.3605   -0.3536 N   0  0  0  0  0  0  0  0  0  0  0  0
   -0.8094   -5.4663   -0.7121 C   0  0  0  0  0  0  0  0  0  0  0  0
    0.5510   -5.4400   -0.9847 C   0  0  0  0  0  0  0  0  0  0  0  0
    1.2969   -4.3061   -0.9131 N   0  0  0  0  0  0  0  0  0  0  0  0
    0.6249   -3.1867   -0.5544 C   0  0  0  0  0  0  0  0  0  0  0  0
    2.3272   -2.1255   -0.6940 H   0  0  0  0  0  0  0  0  0  0  0  0
    3.3922   -0.2422    0.3828 H   0  0  0  0  0  0  0  0  0  0  0  0
    3.0479    0.1003   -1.3336 H   0  0  0  0  0  0  0  0  0  0  0  0
    3.2045    2.1845    0.9383 H   0  0  0  0  0  0  0  0  0  0  0  0
    2.6649    2.5296   -0.7221 H   0  0  0  0  0  0  0  0  0  0  0  0
    4.8251    1.7082   -1.4927 H   0  0  0  0  0  0  0  0  0  0  0  0
    6.7326    1.6537   -0.0385 H   0  0  0  0  0  0  0  0  0  0  0  0
    5.6059    1.7789    1.3608 H   0  0  0  0  0  0  0  0  0  0  0  0
    5.5741    0.3369    0.2781 H   0  0  0  0  0  0  0  0  0  0  0  0
    6.0443    3.6825   -1.0358 H   0  0  0  0  0  0  0  0  0  0  0  0
    4.9112    4.0282    0.3233 H   0  0  0  0  0  0  0  0  0  0  0  0
    4.3196    4.0026   -1.3802 H   0  0  0  0  0  0  0  0  0  0  0  0
   -0.9495    0.0336    0.3969 H   0  0  0  0  0  0  0  0  0  0  0  0
   -2.9005   -1.0141    2.8299 H   0  0  0  0  0  0  0  0  0  0  0  0
   -3.9247    1.1158    3.5385 H   0  0  0  0  0  0  0  0  0  0  0  0
   -5.0171    3.7703    1.1800 H   0  0  0  0  0  0  0  0  0  0  0  0
   -4.6413    3.4037    2.8632 H   0  0  0  0  0  0  0  0  0  0  0  0
   -6.1692    2.8239    2.1550 H   0  0  0  0  0  0  0  0  0  0  0  0
   -4.8991    2.0015   -0.5589 H   0  0  0  0  0  0  0  0  0  0  0  0
   -2.8670   -0.2358   -2.0894 H   0  0  0  0  0  0  0  0  0  0  0  0
   -4.4952    0.4346   -2.2696 H   0  0  0  0  0  0  0  0  0  0  0  0
   -4.3062   -1.2555   -1.8020 H   0  0  0  0  0  0  0  0  0  0  0  0
   -1.3855   -6.3836   -0.7757 H   0  0  0  0  0  0  0  0  0  0  0  0
    1.0827   -6.3417   -1.2715 H   0  0  0  0  0  0  0  0  0  0  0  0
  1  2  1  0
  2  3  2  3
  3  4  1  0
  4  5  1  0
  5  6  1  0
  6  7  1  0
  6  8  1  0
  2  9  1  0
  9 10  1  0
 10 11  2  3
 11 12  1  0
 12 13  2  0
 13 14  1  0
 14 15  2  0
 15 16  1  0
 15 17  1  0
 17 18  2  0
 18 19  1  0
 10 20  1  0
 20 21  2  0
 21 22  1  0
 22 23  2  0
 23 24  1  0
 24 25  2  0
 25  1  1  0
 18 12  1  0
 25 20  1  0
  1 26  1  0
  4 27  1  0
  4 28  1  0
  5 29  1  0
  5 30  1  0
  6 31  1  0
  7 32  1  0
  7 33  1  0
  7 34  1  0
  8 35  1  0
  8 36  1  0
  8 37  1  0
  9 38  1  0
 13 39  1  0
 14 40  1  0
 16 41  1  0
 16 42  1  0
 16 43  1  0
 17 44  1  0
 19 45  1  0
 19 46  1  0
 19 47  1  0
 22 48  1  0
 23 49  1  0
M  CHG  1   6   1
M  END
>  <ScrubInfo>  (8) 
{"isomerGroup": 0, "isomerId": 7, "confId": 0, "nr_conformers:": 1, "nr_isomers:": 9}

$$$$
_i8
     RDKit          3D

 49 51  0  0  0  0  0  0  0  0999 V2000
   -1.5092   -4.0260    0.5899 N   0  0  0  0  0  0  0  0  0  0  0  0
   -0.8032   -5.1932    0.6982 C   0  0  0  0  0  0  0  0  0  0  0  0
    0.5360   -5.2040    0.6152 C   0  0  0  0  0  0  0  0  0  0  0  0
    1.3030   -4.0758    0.4186 N   0  0  0  0  0  0  0  0  0  0  0  0
    0.6785   -2.9330    0.3079 C   0  0  0  0  0  0  0  0  0  0  0  0
    1.4378   -1.6414    0.0898 C   0  0  0  0  0  0  0  0  0  0  0  0
    2.7312   -1.6776    0.0112 N   0  0  0  0  0  0  0  0  0  0  0  0
    3.4256   -0.4758   -0.1901 C   0  0  0  0  0  0  0  0  0  0  0  0
    3.6631   -0.0375   -1.4969 C   0  0  0  0  0  0  0  0  0  0  0  0
    4.3261    1.1669   -1.7361 C   0  0  0  0  0  0  0  0  0  0  0  0
    4.7811    1.9437   -0.6672 C   0  0  0  0  0  0  0  0  0  0  0  0
    5.4769    3.2497   -0.9172 C   0  0  0  0  0  0  0  0  0  0  0  0
    4.5507    1.5032    0.6430 C   0  0  0  0  0  0  0  0  0  0  0  0
    3.8922    0.2879    0.8927 C   0  0  0  0  0  0  0  0  0  0  0  0
    3.6890   -0.1758    2.3077 C   0  0  0  0  0  0  0  0  0  0  0  0
    0.6041   -0.5616    0.0048 N   0  0  0  0  0  0  0  0  0  0  0  0
   -0.7509   -0.5495    0.0922 C   0  0  0  0  0  0  0  0  0  0  0  0
   -1.3688    0.5832   -0.0119 N   0  0  0  0  0  0  0  0  0  0  0  0
   -2.8298    0.5652    0.0855 C   0  0  0  0  0  0  0  0  0  0  0  0
   -3.3318    2.0071   -0.0689 C   0  0  0  0  0  0  0  0  0  0  0  0
   -4.8394    2.1468    0.0095 N   0  0  0  0  0  4  0  0  0  0  0  0
   -5.5676    1.4752   -1.1187 C   0  0  0  0  0  0  0  0  0  0  0  0
   -5.4096    1.7941    1.3528 C   0  0  0  0  0  0  0  0  0  0  0  0
   -1.4814   -1.6951    0.2866 N   0  0  0  0  0  0  0  0  0  0  0  0
   -0.8564   -2.8334    0.3935 C   0  0  0  0  0  0  0  0  0  0  0  0
   -2.5168   -4.0490    0.6579 H   0  0  0  0  0  0  0  0  0  0  0  0
   -1.3861   -6.0953    0.8532 H   0  0  0  0  0  0  0  0  0  0  0  0
    1.0857   -6.1387    0.7029 H   0  0  0  0  0  0  0  0  0  0  0  0
    3.3371   -0.6475   -2.3357 H   0  0  0  0  0  0  0  0  0  0  0  0
    4.5004    1.4845   -2.7618 H   0  0  0  0  0  0  0  0  0  0  0  0
    6.2195    3.4514   -0.1380 H   0  0  0  0  0  0  0  0  0  0  0  0
    6.0078    3.2339   -1.8748 H   0  0  0  0  0  0  0  0  0  0  0  0
    4.7470    4.0649   -0.9313 H   0  0  0  0  0  0  0  0  0  0  0  0
    4.9078    2.1038    1.4783 H   0  0  0  0  0  0  0  0  0  0  0  0
    2.6290   -0.1197    2.5749 H   0  0  0  0  0  0  0  0  0  0  0  0
    4.2487    0.4440    3.0162 H   0  0  0  0  0  0  0  0  0  0  0  0
    4.0409   -1.2055    2.4290 H   0  0  0  0  0  0  0  0  0  0  0  0
    1.0369    0.3407   -0.1357 H   0  0  0  0  0  0  0  0  0  0  0  0
   -3.1379    0.1691    1.0594 H   0  0  0  0  0  0  0  0  0  0  0  0
   -3.2531   -0.0602   -0.7082 H   0  0  0  0  0  0  0  0  0  0  0  0
   -2.9154    2.6525    0.7136 H   0  0  0  0  0  0  0  0  0  0  0  0
   -3.0274    2.4262   -1.0353 H   0  0  0  0  0  0  0  0  0  0  0  0
   -5.0113    3.1540   -0.1095 H   0  0  0  0  0  0  0  0  0  0  0  0
   -5.4991    0.3921   -0.9927 H   0  0  0  0  0  0  0  0  0  0  0  0
   -5.1112    1.7942   -2.0592 H   0  0  0  0  0  0  0  0  0  0  0  0
   -6.6112    1.7995   -1.0830 H   0  0  0  0  0  0  0  0  0  0  0  0
   -6.4545    2.1154    1.3672 H   0  0  0  0  0  0  0  0  0  0  0  0
   -4.8443    2.3332    2.1173 H   0  0  0  0  0  0  0  0  0  0  0  0
   -5.3396    0.7134    1.4972 H   0  0  0  0  0  0  0  0  0  0  0  0
  1  2  1  0
  2  3  2  0
  3  4  1  0
  4  5  2  0
  5  6  1  0
  6  7  2  3
  7  8  1  0
  8  9  2  0
  9 10  1  0
 10 11  2  0
 11 12  1  0
 11 13  1  0
 13 14  2  0
 14 15  1  0
  6 16  1  0
 16 17  1  0
 17 18  2  3
 18 19  1  0
 19 20  1  0
 20 21  1  0
 21 22  1  0
 21 23  1  0
 17 24  1  0
 24 25  2  0
 25  1  1  0
 25  5  1  0
 14  8  1  0
  1 26  1  0
  2 27  1  0
  3 28  1  0
  9 29  1  0
 10 30  1  0
 12 31  1  0
 12 32  1  0
 12 33  1  0
 13 34  1  0
 15 35  1  0
 15 36  1  0
 15 37  1  0
 16 38  1  0
 19 39  1  0
 19 40  1  0
 20 41  1  0
 20 42  1  0
 21 43  1  0
 22 44  1  0
 22 45  1  0
 22 46  1  0
 23 47  1  0
 23 48  1  0
 23 49  1  0
M  CHG  1  21   1
M  END
>  <ScrubInfo>  (9) 
{"isomerGroup": 0, "isomerId": 8, "confId": 0, "nr_conformers:": 1, "nr_isomers:": 9}

$$$$
