REMARK SMILES Cc1ccc(Nc2nc(NCC[NH+](C)C)nc3nccnc23)c(C)c1
REMARK SMILES IDX 10 1 11 3 12 4 13 5 14 6 15 7 9 9 8 10 16 11 7 12 17 13
REMARK SMILES IDX 22 14 18 15 21 16 19 17 20 18 6 19 5 21 4 22 23 23 3 24
REMARK SMILES IDX 25 25 2 26 24 27 1 28
REMARK H PARENT 10 2 13 8 6 20
ROOT
ATOM      1  N   UNL     1       2.796   0.013  -1.854  1.00  0.00    -0.348 N 
ATOM      2  H   UNL     1       3.106   0.061  -2.823  1.00  0.00     0.163 HD
ENDROOT
BRANCH   1   3
ATOM      3  C   UNL     1       2.522   1.260  -1.168  1.00  0.00     0.177 C 
BRANCH   3   4
ATOM      4  C   UNL     1       2.885   1.149   0.331  1.00  0.00     0.283 C 
BRANCH   4   5
ATOM      5  N   UNL     1       2.287   2.277   1.158  1.00  0.00    -0.338 N 
ATOM      6  C   UNL     1       3.041   2.466   2.446  1.00  0.00     0.332 C 
ATOM      7  C   UNL     1       0.821   2.044   1.429  1.00  0.00     0.332 C 
ATOM      8  H   UNL     1       2.373   3.152   0.627  1.00  0.00     0.347 HD
ENDBRANCH   4   5
ENDBRANCH   3   4
ENDBRANCH   1   3
BRANCH   1   9
ATOM      9  C   UNL     1       1.800  -0.950  -1.799  1.00  0.00     0.227 A 
ATOM     10  N   UNL     1       0.896  -0.916  -0.820  1.00  0.00    -0.193 NA
ATOM     11  N   UNL     1       1.828  -1.863  -2.759  1.00  0.00    -0.191 NA
ATOM     12  C   UNL     1      -0.030  -1.901  -0.809  1.00  0.00     0.164 A 
ATOM     13  C   UNL     1       0.928  -2.840  -2.725  1.00  0.00     0.185 A 
ATOM     14  C   UNL     1      -0.061  -2.933  -1.741  1.00  0.00     0.150 A 
ATOM     15  N   UNL     1       0.978  -3.764  -3.691  1.00  0.00    -0.233 NA
ATOM     16  N   UNL     1      -0.999  -3.927  -1.715  1.00  0.00    -0.247 NA
ATOM     17  C   UNL     1       0.064  -4.761  -3.669  1.00  0.00     0.133 A 
ATOM     18  C   UNL     1      -0.910  -4.844  -2.698  1.00  0.00     0.132 A 
BRANCH  12  19
ATOM     19  N   UNL     1      -0.985  -1.942   0.254  1.00  0.00    -0.338 N 
ATOM     20  H   UNL     1      -1.750  -2.557  -0.045  1.00  0.00     0.168 HD
BRANCH  19  21
ATOM     21  C   UNL     1      -1.514  -0.817   0.926  1.00  0.00     0.043 A 
ATOM     22  C   UNL     1      -1.517  -0.854   2.328  1.00  0.00     0.026 A 
ATOM     23  C   UNL     1      -2.173   0.242   0.272  1.00  0.00    -0.027 A 
ATOM     24  C   UNL     1      -2.086   0.176   3.079  1.00  0.00     0.005 A 
ATOM     25  C   UNL     1      -2.731   1.282   1.040  1.00  0.00     0.009 A 
ATOM     26  C   UNL     1      -2.680   1.265   2.440  1.00  0.00    -0.051 A 
ATOM     27  C   UNL     1      -2.314   0.305  -1.225  1.00  0.00     0.046 C 
ATOM     28  C   UNL     1      -3.345   2.347   3.239  1.00  0.00     0.044 C 
ENDBRANCH  19  21
ENDBRANCH  12  19
ENDBRANCH   1   9
TORSDOF 6
