REMARK SMILES COc1ccc(Nc2nc(NCCO)c3nccnc3n2)cc1
REMARK SMILES IDX 8 1 9 2 10 3 15 4 16 5 17 6 18 7 19 8 20 9 21 10 7 11 6 13
REMARK SMILES IDX 3 14 4 15 23 16 5 17 22 18 2 19 1 20 11 21 12 23 13 24 14 25
REMARK H PARENT 7 12 11 22 14 26
ROOT
ATOM      1  C   UNL     1      -0.159   1.467  -0.872  1.00  0.00     0.231 A 
ATOM      2  N   UNL     1      -0.945   0.496  -0.405  1.00  0.00    -0.193 NA
ATOM      3  C   UNL     1      -2.277   0.642  -0.524  1.00  0.00     0.160 A 
ATOM      4  C   UNL     1      -2.865   1.757  -1.119  1.00  0.00     0.150 A 
ATOM      5  N   UNL     1      -4.221   1.928  -1.229  1.00  0.00    -0.247 NA
ATOM      6  C   UNL     1      -4.627   3.062  -1.828  1.00  0.00     0.132 A 
ATOM      7  C   UNL     1      -3.724   3.994  -2.286  1.00  0.00     0.133 A 
ATOM      8  N   UNL     1      -2.388   3.828  -2.160  1.00  0.00    -0.233 NA
ATOM      9  C   UNL     1      -1.945   2.708  -1.576  1.00  0.00     0.185 A 
ATOM     10  N   UNL     1      -0.631   2.569  -1.455  1.00  0.00    -0.191 NA
ENDROOT
BRANCH   1  11
ATOM     11  N   UNL     1       1.228   1.406  -0.782  1.00  0.00    -0.324 N 
ATOM     12  H   UNL     1       1.620   2.237  -1.202  1.00  0.00     0.170 HD
BRANCH  11  13
ATOM     13  C   UNL     1       2.134   0.471  -0.272  1.00  0.00     0.041 A 
ATOM     14  C   UNL     1       4.082  -1.331   0.735  1.00  0.00     0.119 A 
ATOM     15  C   UNL     1       4.473  -0.131   0.149  1.00  0.00     0.048 A 
ATOM     16  C   UNL     1       2.723  -1.627   0.817  1.00  0.00     0.048 A 
ATOM     17  C   UNL     1       3.507   0.756  -0.346  1.00  0.00     0.030 A 
ATOM     18  C   UNL     1       1.761  -0.737   0.320  1.00  0.00     0.030 A 
BRANCH  14  19
ATOM     19  O   UNL     1       4.912  -2.284   1.256  1.00  0.00    -0.497 OA
ATOM     20  C   UNL     1       6.308  -2.025   1.192  1.00  0.00     0.278 C 
ENDBRANCH  14  19
ENDBRANCH  11  13
ENDBRANCH   1  11
BRANCH   3  21
ATOM     21  N   UNL     1      -3.130  -0.415  -0.104  1.00  0.00    -0.366 N 
ATOM     22  H   UNL     1      -3.982   0.007   0.269  1.00  0.00     0.162 HD
BRANCH  21  23
ATOM     23  C   UNL     1      -2.513  -1.386   0.796  1.00  0.00     0.142 C 
BRANCH  23  24
ATOM     24  C   UNL     1      -3.520  -2.483   1.159  1.00  0.00     0.177 C 
BRANCH  24  25
ATOM     25  O   UNL     1      -2.954  -3.383   2.105  1.00  0.00    -0.395 OA
ATOM     26  H   UNL     1      -3.607  -4.090   2.248  1.00  0.00     0.210 HD
ENDBRANCH  24  25
ENDBRANCH  23  24
ENDBRANCH  21  23
ENDBRANCH   3  21
TORSDOF 7
