_i0
     RDKit          3D

 39 41  0  0  0  0  0  0  0  0999 V2000
    6.3079   -2.0245    1.1916 C   0  0  0  0  0  0  0  0  0  0  0  0
    4.9115   -2.2838    1.2562 O   0  0  0  0  0  0  0  0  0  0  0  0
    4.0819   -1.3312    0.7348 C   0  0  0  0  0  0  0  0  0  0  0  0
    4.4728   -0.1311    0.1494 C   0  0  0  0  0  0  0  0  0  0  0  0
    3.5067    0.7563   -0.3458 C   0  0  0  0  0  0  0  0  0  0  0  0
    2.1337    0.4710   -0.2715 C   0  0  0  0  0  0  0  0  0  0  0  0
    1.2285    1.4060   -0.7824 N   0  0  0  0  0  0  0  0  0  0  0  0
   -0.1590    1.4666   -0.8724 C   0  0  0  0  0  0  0  0  0  0  0  0
   -0.9454    0.4958   -0.4054 N   0  0  0  0  0  0  0  0  0  0  0  0
   -2.2775    0.6420   -0.5242 C   0  0  0  0  0  0  0  0  0  0  0  0
   -3.1302   -0.4148   -0.1036 N   0  0  0  0  0  0  0  0  0  0  0  0
   -2.5134   -1.3862    0.7961 C   0  0  0  0  0  0  0  0  0  0  0  0
   -3.5201   -2.4827    1.1585 C   0  0  0  0  0  0  0  0  0  0  0  0
   -2.9542   -3.3830    2.1052 O   0  0  0  0  0  0  0  0  0  0  0  0
   -2.8652    1.7567   -1.1190 C   0  0  0  0  0  0  0  0  0  0  0  0
   -4.2215    1.9283   -1.2292 N   0  0  0  0  0  0  0  0  0  0  0  0
   -4.6273    3.0623   -1.8281 C   0  0  0  0  0  0  0  0  0  0  0  0
   -3.7241    3.9939   -2.2857 C   0  0  0  0  0  0  0  0  0  0  0  0
   -2.3881    3.8277   -2.1604 N   0  0  0  0  0  0  0  0  0  0  0  0
   -1.9450    2.7075   -1.5756 C   0  0  0  0  0  0  0  0  0  0  0  0
   -0.6307    2.5694   -1.4552 N   0  0  0  0  0  0  0  0  0  0  0  0
    1.7614   -0.7370    0.3201 C   0  0  0  0  0  0  0  0  0  0  0  0
    2.7225   -1.6272    0.8166 C   0  0  0  0  0  0  0  0  0  0  0  0
    6.5703   -1.1297    1.7657 H   0  0  0  0  0  0  0  0  0  0  0  0
    6.6468   -1.9424    0.1536 H   0  0  0  0  0  0  0  0  0  0  0  0
    6.8271   -2.8745    1.6448 H   0  0  0  0  0  0  0  0  0  0  0  0
    5.5163    0.1502    0.0600 H   0  0  0  0  0  0  0  0  0  0  0  0
    3.8457    1.6864   -0.7965 H   0  0  0  0  0  0  0  0  0  0  0  0
    1.6201    2.2372   -1.2021 H   0  0  0  0  0  0  0  0  0  0  0  0
   -3.9815    0.0069    0.2689 H   0  0  0  0  0  0  0  0  0  0  0  0
   -2.1634   -0.8978    1.7144 H   0  0  0  0  0  0  0  0  0  0  0  0
   -1.6436   -1.8637    0.3281 H   0  0  0  0  0  0  0  0  0  0  0  0
   -4.4243   -2.0473    1.5971 H   0  0  0  0  0  0  0  0  0  0  0  0
   -3.8081   -3.0474    0.2652 H   0  0  0  0  0  0  0  0  0  0  0  0
   -3.6066   -4.0902    2.2481 H   0  0  0  0  0  0  0  0  0  0  0  0
   -5.6973    3.2011   -1.9296 H   0  0  0  0  0  0  0  0  0  0  0  0
   -4.0445    4.9100   -2.7691 H   0  0  0  0  0  0  0  0  0  0  0  0
    0.7181   -1.0201    0.4098 H   0  0  0  0  0  0  0  0  0  0  0  0
    2.3995   -2.5607    1.2711 H   0  0  0  0  0  0  0  0  0  0  0  0
  1  2  1  0
  2  3  1  0
  3  4  2  0
  4  5  1  0
  5  6  2  0
  6  7  1  0
  7  8  1  0
  8  9  2  0
  9 10  1  0
 10 11  1  0
 11 12  1  0
 12 13  1  0
 13 14  1  0
 10 15  2  0
 15 16  1  0
 16 17  2  0
 17 18  1  0
 18 19  2  0
 19 20  1  0
 20 21  2  0
  6 22  1  0
 22 23  2  0
 23  3  1  0
 21  8  1  0
 20 15  1  0
  1 24  1  0
  1 25  1  0
  1 26  1  0
  4 27  1  0
  5 28  1  0
  7 29  1  0
 11 30  1  0
 12 31  1  0
 12 32  1  0
 13 33  1  0
 13 34  1  0
 14 35  1  0
 17 36  1  0
 18 37  1  0
 22 38  1  0
 23 39  1  0
M  END
>  <ScrubInfo>  (1) 
{"isomerGroup": 0, "isomerId": 0, "confId": 0, "nr_conformers:": 1, "nr_isomers:": 9}

$$$$
_i1
     RDKit          3D

 39 41  0  0  0  0  0  0  0  0999 V2000
   -0.7613    0.7203   -0.5790 N   0  0  0  0  0  0  0  0  0  0  0  0
   -2.0265    0.5235   -1.0717 C   0  0  0  0  0  0  0  0  0  0  0  0
   -2.5393   -0.7572   -1.2868 N   0  0  0  0  0  0  0  0  0  0  0  0
   -1.7494   -1.9155   -1.6991 C   0  0  0  0  0  0  0  0  0  0  0  0
   -1.0299   -2.5786   -0.5179 C   0  0  0  0  0  0  0  0  0  0  0  0
    0.1056   -1.8074   -0.1252 O   0  0  0  0  0  0  0  0  0  0  0  0
   -2.7921    1.6091   -1.3431 C   0  0  0  0  0  0  0  0  0  0  0  0
   -4.0730    1.5148   -1.8544 N   0  0  0  0  0  0  0  0  0  0  0  0
   -4.6522    2.6478   -2.0716 C   0  0  0  0  0  0  0  0  0  0  0  0
   -3.9985    3.9613   -1.8044 C   0  0  0  0  0  0  0  0  0  0  0  0
   -2.8052    4.0701   -1.3329 N   0  0  0  0  0  0  0  0  0  0  0  0
   -2.0979    2.9215   -1.0563 C   0  0  0  0  0  0  0  0  0  0  0  0
   -0.9119    3.0854   -0.5786 N   0  0  0  0  0  0  0  0  0  0  0  0
   -0.2108    1.9417   -0.2919 C   0  0  0  0  0  0  0  0  0  0  0  0
    0.9449    2.1677    0.2519 N   0  0  0  0  0  0  0  0  0  0  0  0
    1.7575    1.0937    0.6256 C   0  0  0  0  0  0  0  0  0  0  0  0
    1.7365    0.6296    1.9426 C   0  0  0  0  0  0  0  0  0  0  0  0
    2.5535   -0.4349    2.3401 C   0  0  0  0  0  0  0  0  0  0  0  0
    3.4094   -1.0385    1.4183 C   0  0  0  0  0  0  0  0  0  0  0  0
    4.2461   -2.0906    1.6703 O   0  0  0  0  0  0  0  0  0  0  0  0
    4.3842   -2.4863    3.0295 C   0  0  0  0  0  0  0  0  0  0  0  0
    3.4421   -0.5650    0.1039 C   0  0  0  0  0  0  0  0  0  0  0  0
    2.6292    0.5020   -0.2884 C   0  0  0  0  0  0  0  0  0  0  0  0
   -0.2500   -0.1238   -0.3293 H   0  0  0  0  0  0  0  0  0  0  0  0
   -3.4373   -0.6816   -1.7719 H   0  0  0  0  0  0  0  0  0  0  0  0
   -1.0341   -1.6202   -2.4753 H   0  0  0  0  0  0  0  0  0  0  0  0
   -2.4373   -2.6464   -2.1383 H   0  0  0  0  0  0  0  0  0  0  0  0
   -0.6697   -3.5681   -0.8167 H   0  0  0  0  0  0  0  0  0  0  0  0
   -1.6952   -2.6857    0.3447 H   0  0  0  0  0  0  0  0  0  0  0  0
    0.5676   -2.3044    0.5748 H   0  0  0  0  0  0  0  0  0  0  0  0
   -5.6748    2.7055   -2.4745 H   0  0  0  0  0  0  0  0  0  0  0  0
   -4.6085    4.8461   -2.0406 H   0  0  0  0  0  0  0  0  0  0  0  0
    1.0778    1.1082    2.6629 H   0  0  0  0  0  0  0  0  0  0  0  0
    2.4966   -0.7606    3.3727 H   0  0  0  0  0  0  0  0  0  0  0  0
    4.7335   -1.6559    3.6523 H   0  0  0  0  0  0  0  0  0  0  0  0
    3.4470   -2.9023    3.4135 H   0  0  0  0  0  0  0  0  0  0  0  0
    5.1406   -3.2758    3.0724 H   0  0  0  0  0  0  0  0  0  0  0  0
    4.1112   -1.0228   -0.6199 H   0  0  0  0  0  0  0  0  0  0  0  0
    2.6718    0.8732   -1.3083 H   0  0  0  0  0  0  0  0  0  0  0  0
  1  2  1  0
  2  3  1  0
  3  4  1  0
  4  5  1  0
  5  6  1  0
  2  7  2  0
  7  8  1  0
  8  9  2  0
  9 10  1  0
 10 11  2  0
 11 12  1  0
 12 13  2  0
 13 14  1  0
 14 15  2  3
 15 16  1  0
 16 17  2  0
 17 18  1  0
 18 19  2  0
 19 20  1  0
 20 21  1  0
 19 22  1  0
 22 23  2  0
 14  1  1  0
 23 16  1  0
 12  7  1  0
  1 24  1  0
  3 25  1  0
  4 26  1  0
  4 27  1  0
  5 28  1  0
  5 29  1  0
  6 30  1  0
  9 31  1  0
 10 32  1  0
 17 33  1  0
 18 34  1  0
 21 35  1  0
 21 36  1  0
 21 37  1  0
 22 38  1  0
 23 39  1  0
M  END
>  <ScrubInfo>  (2) 
{"isomerGroup": 0, "isomerId": 1, "confId": 0, "nr_conformers:": 1, "nr_isomers:": 9}

$$$$
_i2
     RDKit          3D

 39 41  0  0  0  0  0  0  0  0999 V2000
   -0.8730   -0.6274    0.5033 N   0  0  0  0  0  0  0  0  0  0  0  0
    0.0440   -1.5650    0.8919 C   0  0  0  0  0  0  0  0  0  0  0  0
    1.2563   -1.0953    1.3124 N   0  0  0  0  0  0  0  0  0  0  0  0
    2.0495   -0.1075    0.6889 C   0  0  0  0  0  0  0  0  0  0  0  0
    3.0952    0.4660    1.4253 C   0  0  0  0  0  0  0  0  0  0  0  0
    3.9084    1.4656    0.8759 C   0  0  0  0  0  0  0  0  0  0  0  0
    3.6896    1.9057   -0.4272 C   0  0  0  0  0  0  0  0  0  0  0  0
    4.4021    2.8690   -1.0839 O   0  0  0  0  0  0  0  0  0  0  0  0
    5.4802    3.4686   -0.3761 C   0  0  0  0  0  0  0  0  0  0  0  0
    2.6563    1.3341   -1.1705 C   0  0  0  0  0  0  0  0  0  0  0  0
    1.8442    0.3363   -0.6210 C   0  0  0  0  0  0  0  0  0  0  0  0
   -0.2184   -2.8391    0.9396 N   0  0  0  0  0  0  0  0  0  0  0  0
   -1.5073   -3.2263    0.5129 C   0  0  0  0  0  0  0  0  0  0  0  0
   -1.7321   -4.5608    0.5424 N   0  0  0  0  0  0  0  0  0  0  0  0
   -2.9621   -4.9566    0.1322 C   0  0  0  0  0  0  0  0  0  0  0  0
   -3.9401   -4.0669   -0.2938 C   0  0  0  0  0  0  0  0  0  0  0  0
   -3.7421   -2.7317   -0.3324 N   0  0  0  0  0  0  0  0  0  0  0  0
   -2.5064   -2.3406    0.0816 C   0  0  0  0  0  0  0  0  0  0  0  0
   -2.1593   -0.8847    0.0884 C   0  0  0  0  0  0  0  0  0  0  0  0
   -3.0472   -0.0199   -0.2759 N   0  0  0  0  0  0  0  0  0  0  0  0
   -2.6942    1.4025   -0.2792 C   0  0  0  0  0  0  0  0  0  0  0  0
   -3.8956    2.1809   -0.8163 C   0  0  0  0  0  0  0  0  0  0  0  0
   -4.2347    1.6905   -2.1118 O   0  0  0  0  0  0  0  0  0  0  0  0
   -0.5897    0.3354    0.6052 H   0  0  0  0  0  0  0  0  0  0  0  0
    1.8392   -1.8494    1.6706 H   0  0  0  0  0  0  0  0  0  0  0  0
    3.2793    0.1460    2.4491 H   0  0  0  0  0  0  0  0  0  0  0  0
    4.6989    1.8774    1.4944 H   0  0  0  0  0  0  0  0  0  0  0  0
    5.1219    3.9993    0.5122 H   0  0  0  0  0  0  0  0  0  0  0  0
    5.9466    4.2045   -1.0381 H   0  0  0  0  0  0  0  0  0  0  0  0
    6.2415    2.7265   -0.1136 H   0  0  0  0  0  0  0  0  0  0  0  0
    2.4863    1.6619   -2.1939 H   0  0  0  0  0  0  0  0  0  0  0  0
    1.0756   -0.1018   -1.2527 H   0  0  0  0  0  0  0  0  0  0  0  0
   -3.1440   -6.0258    0.1548 H   0  0  0  0  0  0  0  0  0  0  0  0
   -4.9161   -4.4124   -0.6173 H   0  0  0  0  0  0  0  0  0  0  0  0
   -2.4533    1.7512    0.7307 H   0  0  0  0  0  0  0  0  0  0  0  0
   -1.8362    1.5698   -0.9409 H   0  0  0  0  0  0  0  0  0  0  0  0
   -4.7681    2.0569   -0.1668 H   0  0  0  0  0  0  0  0  0  0  0  0
   -3.6654    3.2471   -0.8965 H   0  0  0  0  0  0  0  0  0  0  0  0
   -4.2298    0.7162   -2.0045 H   0  0  0  0  0  0  0  0  0  0  0  0
  1  2  1  0
  2  3  1  0
  3  4  1  0
  4  5  2  0
  5  6  1  0
  6  7  2  0
  7  8  1  0
  8  9  1  0
  7 10  1  0
 10 11  2  0
  2 12  2  0
 12 13  1  0
 13 14  2  0
 14 15  1  0
 15 16  2  0
 16 17  1  0
 17 18  2  0
 18 19  1  0
 19 20  2  3
 20 21  1  0
 21 22  1  0
 22 23  1  0
 19  1  1  0
 11  4  1  0
 18 13  1  0
  1 24  1  0
  3 25  1  0
  5 26  1  0
  6 27  1  0
  9 28  1  0
  9 29  1  0
  9 30  1  0
 10 31  1  0
 11 32  1  0
 15 33  1  0
 16 34  1  0
 21 35  1  0
 21 36  1  0
 22 37  1  0
 22 38  1  0
 23 39  1  0
M  END
>  <ScrubInfo>  (3) 
{"isomerGroup": 0, "isomerId": 2, "confId": 0, "nr_conformers:": 1, "nr_isomers:": 9}

$$$$
_i3
     RDKit          3D

 39 41  0  0  0  0  0  0  0  0999 V2000
    0.1220   -0.7664    0.0258 N   0  0  0  0  0  0  0  0  0  0  0  0
   -0.0596    0.4398   -0.5847 C   0  0  0  0  0  0  0  0  0  0  0  0
    0.8796    1.1809   -1.0884 N   0  0  0  0  0  0  0  0  0  0  0  0
    2.2075    0.7471   -1.0252 C   0  0  0  0  0  0  0  0  0  0  0  0
    3.0246    1.1361    0.0378 C   0  0  0  0  0  0  0  0  0  0  0  0
    4.3536    0.7037    0.1124 C   0  0  0  0  0  0  0  0  0  0  0  0
    4.8786   -0.1161   -0.8872 C   0  0  0  0  0  0  0  0  0  0  0  0
    6.1524   -0.6109   -0.9355 O   0  0  0  0  0  0  0  0  0  0  0  0
    7.0379   -0.2074    0.1014 C   0  0  0  0  0  0  0  0  0  0  0  0
    4.0654   -0.4912   -1.9599 C   0  0  0  0  0  0  0  0  0  0  0  0
    2.7399   -0.0564   -2.0335 C   0  0  0  0  0  0  0  0  0  0  0  0
   -1.3138    0.9884   -0.7162 N   0  0  0  0  0  0  0  0  0  0  0  0
   -2.3624    0.3541   -0.2546 C   0  0  0  0  0  0  0  0  0  0  0  0
   -3.5673    1.0015   -0.4525 N   0  0  0  0  0  0  0  0  0  0  0  0
   -4.7418    0.8729    0.3961 C   0  0  0  0  0  0  0  0  0  0  0  0
   -5.7886    1.9153   -0.0146 C   0  0  0  0  0  0  0  0  0  0  0  0
   -5.2649    3.2310    0.1636 O   0  0  0  0  0  0  0  0  0  0  0  0
   -2.2387   -0.9741    0.4263 C   0  0  0  0  0  0  0  0  0  0  0  0
   -3.3408   -1.6142    0.9002 N   0  0  0  0  0  0  0  0  0  0  0  0
   -3.0882   -2.8049    1.4862 C   0  0  0  0  0  0  0  0  0  0  0  0
   -1.8070   -3.3240    1.5967 C   0  0  0  0  0  0  0  0  0  0  0  0
   -0.7125   -2.6783    1.1262 N   0  0  0  0  0  0  0  0  0  0  0  0
   -0.9457   -1.4833    0.5309 C   0  0  0  0  0  0  0  0  0  0  0  0
    1.0353   -1.1756    0.1209 H   0  0  0  0  0  0  0  0  0  0  0  0
    2.6212    1.7859    0.8104 H   0  0  0  0  0  0  0  0  0  0  0  0
    4.9478    1.0305    0.9588 H   0  0  0  0  0  0  0  0  0  0  0  0
    6.6919   -0.5656    1.0766 H   0  0  0  0  0  0  0  0  0  0  0  0
    8.0124   -0.6651   -0.0944 H   0  0  0  0  0  0  0  0  0  0  0  0
    7.1750    0.8791    0.1043 H   0  0  0  0  0  0  0  0  0  0  0  0
    4.4697   -1.1190   -2.7501 H   0  0  0  0  0  0  0  0  0  0  0  0
    2.1209   -0.3396   -2.8804 H   0  0  0  0  0  0  0  0  0  0  0  0
   -3.4039    1.9712   -0.7280 H   0  0  0  0  0  0  0  0  0  0  0  0
   -5.1898   -0.1186    0.2876 H   0  0  0  0  0  0  0  0  0  0  0  0
   -4.4548    1.0352    1.4408 H   0  0  0  0  0  0  0  0  0  0  0  0
   -6.6861    1.8142    0.6031 H   0  0  0  0  0  0  0  0  0  0  0  0
   -6.0633    1.7944   -1.0678 H   0  0  0  0  0  0  0  0  0  0  0  0
   -5.9330    3.8520   -0.1746 H   0  0  0  0  0  0  0  0  0  0  0  0
   -3.9497   -3.3404    1.8700 H   0  0  0  0  0  0  0  0  0  0  0  0
   -1.6242   -4.2824    2.0710 H   0  0  0  0  0  0  0  0  0  0  0  0
  1  2  1  0
  2  3  2  3
  3  4  1  0
  4  5  2  0
  5  6  1  0
  6  7  2  0
  7  8  1  0
  8  9  1  0
  7 10  1  0
 10 11  2  0
  2 12  1  0
 12 13  2  0
 13 14  1  0
 14 15  1  0
 15 16  1  0
 16 17  1  0
 13 18  1  0
 18 19  2  0
 19 20  1  0
 20 21  2  0
 21 22  1  0
 22 23  2  0
 23  1  1  0
 11  4  1  0
 23 18  1  0
  1 24  1  0
  5 25  1  0
  6 26  1  0
  9 27  1  0
  9 28  1  0
  9 29  1  0
 10 30  1  0
 11 31  1  0
 14 32  1  0
 15 33  1  0
 15 34  1  0
 16 35  1  0
 16 36  1  0
 17 37  1  0
 20 38  1  0
 21 39  1  0
M  END
>  <ScrubInfo>  (4) 
{"isomerGroup": 0, "isomerId": 3, "confId": 0, "nr_conformers:": 1, "nr_isomers:": 9}

$$$$
_i4
     RDKit          3D

 39 41  0  0  0  0  0  0  0  0999 V2000
   -0.6264   -3.1510   -0.7751 N   0  0  0  0  0  0  0  0  0  0  0  0
   -1.6360   -3.9975   -1.1445 C   0  0  0  0  0  0  0  0  0  0  0  0
   -2.9076   -3.5682   -1.2138 C   0  0  0  0  0  0  0  0  0  0  0  0
   -3.3022   -2.2751   -0.9232 N   0  0  0  0  0  0  0  0  0  0  0  0
   -2.3543   -1.4441   -0.5648 C   0  0  0  0  0  0  0  0  0  0  0  0
   -2.6962   -0.0207   -0.2216 C   0  0  0  0  0  0  0  0  0  0  0  0
   -4.0224    0.3526   -0.2511 N   0  0  0  0  0  0  0  0  0  0  0  0
   -4.4567    1.7341   -0.2504 C   0  0  0  0  0  0  0  0  0  0  0  0
   -4.4329    2.3371    1.1557 C   0  0  0  0  0  0  0  0  0  0  0  0
   -4.8019    3.7140    1.1140 O   0  0  0  0  0  0  0  0  0  0  0  0
   -1.7309    0.7834    0.0814 N   0  0  0  0  0  0  0  0  0  0  0  0
   -0.4377    0.3255    0.0948 C   0  0  0  0  0  0  0  0  0  0  0  0
    0.4301    1.2428    0.3842 N   0  0  0  0  0  0  0  0  0  0  0  0
    1.7914    0.9180    0.4377 C   0  0  0  0  0  0  0  0  0  0  0  0
    2.3669    0.4572    1.6226 C   0  0  0  0  0  0  0  0  0  0  0  0
    3.7317    0.1619    1.6757 C   0  0  0  0  0  0  0  0  0  0  0  0
    4.5417    0.3383    0.5510 C   0  0  0  0  0  0  0  0  0  0  0  0
    5.8569    0.0121    0.7368 O   0  0  0  0  0  0  0  0  0  0  0  0
    6.7312    0.2212   -0.3649 C   0  0  0  0  0  0  0  0  0  0  0  0
    3.9734    0.8173   -0.6298 C   0  0  0  0  0  0  0  0  0  0  0  0
    2.6054    1.1106   -0.6808 C   0  0  0  0  0  0  0  0  0  0  0  0
   -0.0173   -0.9575   -0.1616 N   0  0  0  0  0  0  0  0  0  0  0  0
   -0.8999   -1.8393   -0.4828 C   0  0  0  0  0  0  0  0  0  0  0  0
    0.3315   -3.4760   -0.7476 H   0  0  0  0  0  0  0  0  0  0  0  0
   -1.3442   -5.0167   -1.3741 H   0  0  0  0  0  0  0  0  0  0  0  0
   -3.7002   -4.2515   -1.5091 H   0  0  0  0  0  0  0  0  0  0  0  0
   -4.6548   -0.3267   -0.6717 H   0  0  0  0  0  0  0  0  0  0  0  0
   -3.8449    2.3342   -0.9349 H   0  0  0  0  0  0  0  0  0  0  0  0
   -5.4788    1.7911   -0.6431 H   0  0  0  0  0  0  0  0  0  0  0  0
   -3.4466    2.2581    1.6238 H   0  0  0  0  0  0  0  0  0  0  0  0
   -5.1467    1.8160    1.8024 H   0  0  0  0  0  0  0  0  0  0  0  0
   -4.0207    4.2014    0.7959 H   0  0  0  0  0  0  0  0  0  0  0  0
    1.7492    0.3280    2.5062 H   0  0  0  0  0  0  0  0  0  0  0  0
    4.1666   -0.2017    2.6029 H   0  0  0  0  0  0  0  0  0  0  0  0
    6.7616    1.2778   -0.6510 H   0  0  0  0  0  0  0  0  0  0  0  0
    6.4534   -0.4115   -1.2143 H   0  0  0  0  0  0  0  0  0  0  0  0
    7.7391   -0.0675   -0.0511 H   0  0  0  0  0  0  0  0  0  0  0  0
    4.5612    0.9785   -1.5265 H   0  0  0  0  0  0  0  0  0  0  0  0
    2.1678    1.4937   -1.5984 H   0  0  0  0  0  0  0  0  0  0  0  0
  1  2  1  0
  2  3  2  0
  3  4  1  0
  4  5  2  0
  5  6  1  0
  6  7  1  0
  7  8  1  0
  8  9  1  0
  9 10  1  0
  6 11  2  0
 11 12  1  0
 12 13  2  3
 13 14  1  0
 14 15  2  0
 15 16  1  0
 16 17  2  0
 17 18  1  0
 18 19  1  0
 17 20  1  0
 20 21  2  0
 12 22  1  0
 22 23  2  0
 23  1  1  0
 23  5  1  0
 21 14  1  0
  1 24  1  0
  2 25  1  0
  3 26  1  0
  7 27  1  0
  8 28  1  0
  8 29  1  0
  9 30  1  0
  9 31  1  0
 10 32  1  0
 15 33  1  0
 16 34  1  0
 19 35  1  0
 19 36  1  0
 19 37  1  0
 20 38  1  0
 21 39  1  0
M  END
>  <ScrubInfo>  (5) 
{"isomerGroup": 0, "isomerId": 4, "confId": 0, "nr_conformers:": 1, "nr_isomers:": 9}

$$$$
_i5
     RDKit          3D

 39 41  0  0  0  0  0  0  0  0999 V2000
   -0.4603   -0.7582   -0.8070 N   0  0  0  0  0  0  0  0  0  0  0  0
   -0.2068   -0.7673    0.5251 C   0  0  0  0  0  0  0  0  0  0  0  0
    1.0847   -1.0218    0.8924 N   0  0  0  0  0  0  0  0  0  0  0  0
    2.2577   -0.4561    0.3474 C   0  0  0  0  0  0  0  0  0  0  0  0
    2.2629    0.6704   -0.4802 C   0  0  0  0  0  0  0  0  0  0  0  0
    3.4630    1.1690   -0.9986 C   0  0  0  0  0  0  0  0  0  0  0  0
    4.6805    0.5560   -0.7009 C   0  0  0  0  0  0  0  0  0  0  0  0
    5.7731    1.1438   -1.2739 O   0  0  0  0  0  0  0  0  0  0  0  0
    7.0405    0.5677   -0.9831 C   0  0  0  0  0  0  0  0  0  0  0  0
    4.6885   -0.5638    0.1270 C   0  0  0  0  0  0  0  0  0  0  0  0
    3.4864   -1.0614    0.6463 C   0  0  0  0  0  0  0  0  0  0  0  0
   -1.1082   -0.6211    1.4482 N   0  0  0  0  0  0  0  0  0  0  0  0
   -2.4280   -0.4050    1.0900 C   0  0  0  0  0  0  0  0  0  0  0  0
   -3.1980   -0.3017    2.1168 N   0  0  0  0  0  0  0  0  0  0  0  0
   -4.6422   -0.1026    2.0427 C   0  0  0  0  0  0  0  0  0  0  0  0
   -4.9505    1.3933    1.9897 C   0  0  0  0  0  0  0  0  0  0  0  0
   -4.3411    2.0464    3.1043 O   0  0  0  0  0  0  0  0  0  0  0  0
   -2.7847   -0.3161   -0.3657 C   0  0  0  0  0  0  0  0  0  0  0  0
   -4.0573   -0.0432   -0.7624 N   0  0  0  0  0  0  0  0  0  0  0  0
   -4.2452    0.0037   -2.0996 C   0  0  0  0  0  0  0  0  0  0  0  0
   -3.2156   -0.2077   -3.0014 C   0  0  0  0  0  0  0  0  0  0  0  0
   -1.9469   -0.4717   -2.6088 N   0  0  0  0  0  0  0  0  0  0  0  0
   -1.7412   -0.5194   -1.2699 C   0  0  0  0  0  0  0  0  0  0  0  0
    0.2564   -0.9301   -1.4937 H   0  0  0  0  0  0  0  0  0  0  0  0
    1.1649   -1.1098    1.9030 H   0  0  0  0  0  0  0  0  0  0  0  0
    1.3445    1.2022   -0.7141 H   0  0  0  0  0  0  0  0  0  0  0  0
    3.4475    2.0512   -1.6349 H   0  0  0  0  0  0  0  0  0  0  0  0
    7.1003   -0.4610   -1.3534 H   0  0  0  0  0  0  0  0  0  0  0  0
    7.8021    1.1544   -1.5058 H   0  0  0  0  0  0  0  0  0  0  0  0
    7.2599    0.6162    0.0886 H   0  0  0  0  0  0  0  0  0  0  0  0
    5.6078   -1.0769    0.3885 H   0  0  0  0  0  0  0  0  0  0  0  0
    3.5164   -1.9438    1.2826 H   0  0  0  0  0  0  0  0  0  0  0  0
   -5.1237   -0.6620    1.2374 H   0  0  0  0  0  0  0  0  0  0  0  0
   -5.0607   -0.5084    2.9718 H   0  0  0  0  0  0  0  0  0  0  0  0
   -6.0289    1.5696    2.0345 H   0  0  0  0  0  0  0  0  0  0  0  0
   -4.5589    1.8575    1.0806 H   0  0  0  0  0  0  0  0  0  0  0  0
   -3.4998    1.5630    3.2422 H   0  0  0  0  0  0  0  0  0  0  0  0
   -5.2552    0.2172   -2.4330 H   0  0  0  0  0  0  0  0  0  0  0  0
   -3.3836   -0.1682   -4.0724 H   0  0  0  0  0  0  0  0  0  0  0  0
  1  2  1  0
  2  3  1  0
  3  4  1  0
  4  5  2  0
  5  6  1  0
  6  7  2  0
  7  8  1  0
  8  9  1  0
  7 10  1  0
 10 11  2  0
  2 12  2  0
 12 13  1  0
 13 14  2  3
 14 15  1  0
 15 16  1  0
 16 17  1  0
 13 18  1  0
 18 19  2  0
 19 20  1  0
 20 21  2  0
 21 22  1  0
 22 23  2  0
 23  1  1  0
 11  4  1  0
 23 18  1  0
  1 24  1  0
  3 25  1  0
  5 26  1  0
  6 27  1  0
  9 28  1  0
  9 29  1  0
  9 30  1  0
 10 31  1  0
 11 32  1  0
 15 33  1  0
 15 34  1  0
 16 35  1  0
 16 36  1  0
 17 37  1  0
 20 38  1  0
 21 39  1  0
M  END
>  <ScrubInfo>  (6) 
{"isomerGroup": 0, "isomerId": 5, "confId": 0, "nr_conformers:": 1, "nr_isomers:": 9}

$$$$
_i6
     RDKit          3D

 39 41  0  0  0  0  0  0  0  0999 V2000
   -1.5857    0.1256   -2.9111 N   0  0  0  0  0  0  0  0  0  0  0  0
   -2.8427    0.0706   -3.4459 C   0  0  0  0  0  0  0  0  0  0  0  0
   -3.9170   -0.0871   -2.6568 C   0  0  0  0  0  0  0  0  0  0  0  0
   -3.8497   -0.1987   -1.2828 N   0  0  0  0  0  0  0  0  0  0  0  0
   -2.6629   -0.1577   -0.7323 C   0  0  0  0  0  0  0  0  0  0  0  0
   -2.4060   -0.2542    0.7450 C   0  0  0  0  0  0  0  0  0  0  0  0
   -3.2865   -0.2816    1.6843 N   0  0  0  0  0  0  0  0  0  0  0  0
   -4.7112   -0.2096    1.3943 C   0  0  0  0  0  0  0  0  0  0  0  0
   -5.4789   -0.2061    2.7167 C   0  0  0  0  0  0  0  0  0  0  0  0
   -6.8798   -0.1282    2.4721 O   0  0  0  0  0  0  0  0  0  0  0  0
   -1.1150   -0.3151    1.1933 N   0  0  0  0  0  0  0  0  0  0  0  0
   -0.1159   -0.2018    0.3658 C   0  0  0  0  0  0  0  0  0  0  0  0
    1.1147   -0.2889    0.9553 N   0  0  0  0  0  0  0  0  0  0  0  0
    2.4099   -0.0529    0.4738 C   0  0  0  0  0  0  0  0  0  0  0  0
    3.4959   -0.4179    1.2881 C   0  0  0  0  0  0  0  0  0  0  0  0
    4.8237   -0.2499    0.8701 C   0  0  0  0  0  0  0  0  0  0  0  0
    5.0960    0.2833   -0.3852 C   0  0  0  0  0  0  0  0  0  0  0  0
    6.3344    0.5019   -0.9196 O   0  0  0  0  0  0  0  0  0  0  0  0
    7.4527    0.1578   -0.1115 C   0  0  0  0  0  0  0  0  0  0  0  0
    4.0298    0.6392   -1.2091 C   0  0  0  0  0  0  0  0  0  0  0  0
    2.7045    0.4678   -0.7872 C   0  0  0  0  0  0  0  0  0  0  0  0
   -0.2470   -0.0348   -0.9872 N   0  0  0  0  0  0  0  0  0  0  0  0
   -1.4045   -0.0145   -1.5578 C   0  0  0  0  0  0  0  0  0  0  0  0
   -0.7784    0.1848   -3.5172 H   0  0  0  0  0  0  0  0  0  0  0  0
   -2.9104    0.1569   -4.5249 H   0  0  0  0  0  0  0  0  0  0  0  0
   -4.9145   -0.1316   -3.0876 H   0  0  0  0  0  0  0  0  0  0  0  0
   -4.9643    0.7055    0.8465 H   0  0  0  0  0  0  0  0  0  0  0  0
   -5.0430   -1.0727    0.8058 H   0  0  0  0  0  0  0  0  0  0  0  0
   -5.1844    0.6520    3.3303 H   0  0  0  0  0  0  0  0  0  0  0  0
   -5.2740   -1.1212    3.2827 H   0  0  0  0  0  0  0  0  0  0  0  0
   -7.3123   -0.1343    3.3427 H   0  0  0  0  0  0  0  0  0  0  0  0
    1.0475   -0.4448    1.9523 H   0  0  0  0  0  0  0  0  0  0  0  0
    3.3185   -0.8491    2.2714 H   0  0  0  0  0  0  0  0  0  0  0  0
    5.6139   -0.5504    1.5495 H   0  0  0  0  0  0  0  0  0  0  0  0
    8.3592    0.3955   -0.6764 H   0  0  0  0  0  0  0  0  0  0  0  0
    7.4673   -0.9154    0.1056 H   0  0  0  0  0  0  0  0  0  0  0  0
    7.4704    0.7485    0.8105 H   0  0  0  0  0  0  0  0  0  0  0  0
    4.2272    1.0563   -2.1937 H   0  0  0  0  0  0  0  0  0  0  0  0
    1.9188    0.7723   -1.4697 H   0  0  0  0  0  0  0  0  0  0  0  0
  1  2  1  0
  2  3  2  0
  3  4  1  0
  4  5  2  0
  5  6  1  0
  6  7  2  3
  7  8  1  0
  8  9  1  0
  9 10  1  0
  6 11  1  0
 11 12  2  0
 12 13  1  0
 13 14  1  0
 14 15  2  0
 15 16  1  0
 16 17  2  0
 17 18  1  0
 18 19  1  0
 17 20  1  0
 20 21  2  0
 12 22  1  0
 22 23  2  0
 23  1  1  0
 23  5  1  0
 21 14  1  0
  1 24  1  0
  2 25  1  0
  3 26  1  0
  8 27  1  0
  8 28  1  0
  9 29  1  0
  9 30  1  0
 10 31  1  0
 13 32  1  0
 15 33  1  0
 16 34  1  0
 19 35  1  0
 19 36  1  0
 19 37  1  0
 20 38  1  0
 21 39  1  0
M  END
>  <ScrubInfo>  (7) 
{"isomerGroup": 0, "isomerId": 6, "confId": 0, "nr_conformers:": 1, "nr_isomers:": 9}

$$$$
_i7
     RDKit          3D

 39 41  0  0  0  0  0  0  0  0999 V2000
   -0.1534    0.2978   -0.1664 N   0  0  0  0  0  0  0  0  0  0  0  0
    0.3527   -0.7155    0.6012 C   0  0  0  0  0  0  0  0  0  0  0  0
    1.5847   -1.1286    0.6529 N   0  0  0  0  0  0  0  0  0  0  0  0
    2.5405   -0.5019   -0.1556 C   0  0  0  0  0  0  0  0  0  0  0  0
    2.7701   -0.9479   -1.4570 C   0  0  0  0  0  0  0  0  0  0  0  0
    3.7225   -0.3149   -2.2593 C   0  0  0  0  0  0  0  0  0  0  0  0
    4.4659    0.7609   -1.7670 C   0  0  0  0  0  0  0  0  0  0  0  0
    5.3613    1.2899   -2.6544 O   0  0  0  0  0  0  0  0  0  0  0  0
    6.1784    2.3554   -2.1858 C   0  0  0  0  0  0  0  0  0  0  0  0
    4.2501    1.1971   -0.4594 C   0  0  0  0  0  0  0  0  0  0  0  0
    3.2939    0.5628    0.3422 C   0  0  0  0  0  0  0  0  0  0  0  0
   -0.5868   -1.3213    1.3875 N   0  0  0  0  0  0  0  0  0  0  0  0
   -1.9310   -1.0637    1.5222 C   0  0  0  0  0  0  0  0  0  0  0  0
   -2.5647   -1.7723    2.4005 N   0  0  0  0  0  0  0  0  0  0  0  0
   -3.9753   -1.6303    2.7399 C   0  0  0  0  0  0  0  0  0  0  0  0
   -4.8421   -2.5928    1.9211 C   0  0  0  0  0  0  0  0  0  0  0  0
   -4.9567   -2.2099    0.5530 O   0  0  0  0  0  0  0  0  0  0  0  0
   -2.4514    0.0171    0.6198 C   0  0  0  0  0  0  0  0  0  0  0  0
   -3.7790    0.3166    0.5897 N   0  0  0  0  0  0  0  0  0  0  0  0
   -4.1167    1.3071   -0.2682 C   0  0  0  0  0  0  0  0  0  0  0  0
   -3.1852    1.9552   -1.0628 C   0  0  0  0  0  0  0  0  0  0  0  0
   -1.8668    1.6461   -1.0432 N   0  0  0  0  0  0  0  0  0  0  0  0
   -1.4992    0.6563   -0.1930 C   0  0  0  0  0  0  0  0  0  0  0  0
    0.4370    0.8117   -0.8031 H   0  0  0  0  0  0  0  0  0  0  0  0
    2.2082   -1.7923   -1.8466 H   0  0  0  0  0  0  0  0  0  0  0  0
    3.8920   -0.6686   -3.2734 H   0  0  0  0  0  0  0  0  0  0  0  0
    5.5733    3.2285   -1.9201 H   0  0  0  0  0  0  0  0  0  0  0  0
    6.8455    2.6489   -3.0020 H   0  0  0  0  0  0  0  0  0  0  0  0
    6.8020    2.0350   -1.3446 H   0  0  0  0  0  0  0  0  0  0  0  0
    4.8087    2.0215   -0.0296 H   0  0  0  0  0  0  0  0  0  0  0  0
    3.1363    0.8983    1.3639 H   0  0  0  0  0  0  0  0  0  0  0  0
   -0.2353   -2.0644    1.9779 H   0  0  0  0  0  0  0  0  0  0  0  0
   -4.3282   -0.5985    2.6738 H   0  0  0  0  0  0  0  0  0  0  0  0
   -4.0765   -1.9031    3.7971 H   0  0  0  0  0  0  0  0  0  0  0  0
   -4.4378   -3.6094    1.9536 H   0  0  0  0  0  0  0  0  0  0  0  0
   -5.8543   -2.6160    2.3371 H   0  0  0  0  0  0  0  0  0  0  0  0
   -4.7366   -1.2586    0.5088 H   0  0  0  0  0  0  0  0  0  0  0  0
   -5.1691    1.5693   -0.3050 H   0  0  0  0  0  0  0  0  0  0  0  0
   -3.4767    2.7462   -1.7459 H   0  0  0  0  0  0  0  0  0  0  0  0
  1  2  1  0
  2  3  2  3
  3  4  1  0
  4  5  2  0
  5  6  1  0
  6  7  2  0
  7  8  1  0
  8  9  1  0
  7 10  1  0
 10 11  2  0
  2 12  1  0
 12 13  1  0
 13 14  2  3
 14 15  1  0
 15 16  1  0
 16 17  1  0
 13 18  1  0
 18 19  2  0
 19 20  1  0
 20 21  2  0
 21 22  1  0
 22 23  2  0
 23  1  1  0
 11  4  1  0
 23 18  1  0
  1 24  1  0
  5 25  1  0
  6 26  1  0
  9 27  1  0
  9 28  1  0
  9 29  1  0
 10 30  1  0
 11 31  1  0
 12 32  1  0
 15 33  1  0
 15 34  1  0
 16 35  1  0
 16 36  1  0
 17 37  1  0
 20 38  1  0
 21 39  1  0
M  END
>  <ScrubInfo>  (8) 
{"isomerGroup": 0, "isomerId": 7, "confId": 0, "nr_conformers:": 1, "nr_isomers:": 9}

$$$$
_i8
     RDKit          3D

 39 41  0  0  0  0  0  0  0  0999 V2000
   -0.7059    0.0516   -2.6883 N   0  0  0  0  0  0  0  0  0  0  0  0
   -1.7860   -0.0377   -3.5188 C   0  0  0  0  0  0  0  0  0  0  0  0
   -3.0256   -0.1760   -3.0246 C   0  0  0  0  0  0  0  0  0  0  0  0
   -3.3166   -0.2373   -1.6776 N   0  0  0  0  0  0  0  0  0  0  0  0
   -2.3199   -0.1528   -0.8340 C   0  0  0  0  0  0  0  0  0  0  0  0
   -2.5231   -0.2039    0.6720 C   0  0  0  0  0  0  0  0  0  0  0  0
   -3.6350   -0.3221    1.3233 N   0  0  0  0  0  0  0  0  0  0  0  0
   -4.9091   -0.4292    0.6063 C   0  0  0  0  0  0  0  0  0  0  0  0
   -6.0241   -0.5707    1.6459 C   0  0  0  0  0  0  0  0  0  0  0  0
   -6.0042    0.5493    2.5293 O   0  0  0  0  0  0  0  0  0  0  0  0
   -1.3465   -0.1070    1.3491 N   0  0  0  0  0  0  0  0  0  0  0  0
   -0.0901    0.0272    0.8470 C   0  0  0  0  0  0  0  0  0  0  0  0
    0.9010    0.1027    1.6874 N   0  0  0  0  0  0  0  0  0  0  0  0
    2.2074    0.2441    1.1985 C   0  0  0  0  0  0  0  0  0  0  0  0
    3.0116   -0.8808    1.0025 C   0  0  0  0  0  0  0  0  0  0  0  0
    4.3278   -0.7484    0.5441 C   0  0  0  0  0  0  0  0  0  0  0  0
    4.8548    0.5179    0.2887 C   0  0  0  0  0  0  0  0  0  0  0  0
    6.1175    0.7886   -0.1614 O   0  0  0  0  0  0  0  0  0  0  0  0
    6.9821   -0.3235   -0.3549 C   0  0  0  0  0  0  0  0  0  0  0  0
    4.0562    1.6447    0.5002 C   0  0  0  0  0  0  0  0  0  0  0  0
    2.7432    1.5101    0.9591 C   0  0  0  0  0  0  0  0  0  0  0  0
    0.1377    0.0815   -0.5056 N   0  0  0  0  0  0  0  0  0  0  0  0
   -0.8650    0.0032   -1.3264 C   0  0  0  0  0  0  0  0  0  0  0  0
    0.2253    0.1588   -3.0697 H   0  0  0  0  0  0  0  0  0  0  0  0
   -1.5775    0.0101   -4.5821 H   0  0  0  0  0  0  0  0  0  0  0  0
   -3.8775   -0.2454   -3.6968 H   0  0  0  0  0  0  0  0  0  0  0  0
   -5.0893    0.4843    0.0291 H   0  0  0  0  0  0  0  0  0  0  0  0
   -4.9280   -1.3096   -0.0438 H   0  0  0  0  0  0  0  0  0  0  0  0
   -7.0040   -0.6131    1.1620 H   0  0  0  0  0  0  0  0  0  0  0  0
   -5.8888   -1.4767    2.2453 H   0  0  0  0  0  0  0  0  0  0  0  0
   -5.0573    0.6804    2.7317 H   0  0  0  0  0  0  0  0  0  0  0  0
   -1.4005   -0.1361    2.3571 H   0  0  0  0  0  0  0  0  0  0  0  0
    2.6081   -1.8681    1.2079 H   0  0  0  0  0  0  0  0  0  0  0  0
    4.9097   -1.6522    0.4018 H   0  0  0  0  0  0  0  0  0  0  0  0
    7.9478    0.0597   -0.6985 H   0  0  0  0  0  0  0  0  0  0  0  0
    7.1522   -0.8603    0.5843 H   0  0  0  0  0  0  0  0  0  0  0  0
    6.5953   -0.9936   -1.1297 H   0  0  0  0  0  0  0  0  0  0  0  0
    4.4603    2.6358    0.3115 H   0  0  0  0  0  0  0  0  0  0  0  0
    2.1359    2.3940    1.1284 H   0  0  0  0  0  0  0  0  0  0  0  0
  1  2  1  0
  2  3  2  0
  3  4  1  0
  4  5  2  0
  5  6  1  0
  6  7  2  3
  7  8  1  0
  8  9  1  0
  9 10  1  0
  6 11  1  0
 11 12  1  0
 12 13  2  3
 13 14  1  0
 14 15  2  0
 15 16  1  0
 16 17  2  0
 17 18  1  0
 18 19  1  0
 17 20  1  0
 20 21  2  0
 12 22  1  0
 22 23  2  0
 23  1  1  0
 23  5  1  0
 21 14  1  0
  1 24  1  0
  2 25  1  0
  3 26  1  0
  8 27  1  0
  8 28  1  0
  9 29  1  0
  9 30  1  0
 10 31  1  0
 11 32  1  0
 15 33  1  0
 16 34  1  0
 19 35  1  0
 19 36  1  0
 19 37  1  0
 20 38  1  0
 21 39  1  0
M  END
>  <ScrubInfo>  (9) 
{"isomerGroup": 0, "isomerId": 8, "confId": 0, "nr_conformers:": 1, "nr_isomers:": 9}

$$$$
