_i0
     RDKit          3D

 47 49  0  0  0  0  0  0  0  0999 V2000
   -1.6395   -0.8904    0.6552 C   0  0  0  0  0  0  0  0  0  0  0  0
   -2.0368   -2.3584    0.6358 N   0  0  0  0  0  4  0  0  0  0  0  0
   -2.5869   -2.8188   -0.6797 C   0  0  0  0  0  0  0  0  0  0  0  0
   -2.8771   -2.7728    1.8071 C   0  0  0  0  0  0  0  0  0  0  0  0
   -2.7997    0.0938    0.3664 C   0  0  0  0  0  0  0  0  0  0  0  0
   -2.6097    1.3989    0.9904 N   0  0  0  0  0  0  0  0  0  0  0  0
   -1.5939    2.1805    0.4539 C   0  0  0  0  0  0  0  0  0  0  0  0
   -0.4551    1.6042    0.0902 N   0  0  0  0  0  0  0  0  0  0  0  0
   -1.8375    3.4759    0.3390 N   0  0  0  0  0  0  0  0  0  0  0  0
    0.5143    2.3905   -0.4231 C   0  0  0  0  0  0  0  0  0  0  0  0
   -0.8815    4.2500   -0.1699 C   0  0  0  0  0  0  0  0  0  0  0  0
    1.7571    1.7979   -0.7832 N   0  0  0  0  0  0  0  0  0  0  0  0
    0.3627    3.7614   -0.5925 C   0  0  0  0  0  0  0  0  0  0  0  0
   -1.1484    5.5541   -0.2905 N   0  0  0  0  0  0  0  0  0  0  0  0
    2.1221    0.4498   -0.6344 C   0  0  0  0  0  0  0  0  0  0  0  0
    1.3268    4.5594   -1.1438 N   0  0  0  0  0  0  0  0  0  0  0  0
   -0.1923    6.3555   -0.8161 C   0  0  0  0  0  0  0  0  0  0  0  0
    1.9193   -0.2313    0.5716 C   0  0  0  0  0  0  0  0  0  0  0  0
    2.6356   -0.2658   -1.7210 C   0  0  0  0  0  0  0  0  0  0  0  0
    1.0247    5.8688   -1.2371 C   0  0  0  0  0  0  0  0  0  0  0  0
    2.2066   -1.5937    0.6842 C   0  0  0  0  0  0  0  0  0  0  0  0
    2.9218   -1.6338   -1.6126 C   0  0  0  0  0  0  0  0  0  0  0  0
    2.7041   -2.3024   -0.4087 C   0  0  0  0  0  0  0  0  0  0  0  0
    2.9089   -3.6349   -0.1841 O   0  0  0  0  0  0  0  0  0  0  0  0
    3.7475   -4.3093   -1.1184 C   0  0  0  0  0  0  0  0  0  0  0  0
   -0.8621   -0.8020   -0.1086 H   0  0  0  0  0  0  0  0  0  0  0  0
   -1.1874   -0.7095    1.6369 H   0  0  0  0  0  0  0  0  0  0  0  0
   -1.1407   -2.8550    0.7486 H   0  0  0  0  0  0  0  0  0  0  0  0
   -1.8846   -2.5268   -1.4649 H   0  0  0  0  0  0  0  0  0  0  0  0
   -3.5649   -2.3568   -0.8350 H   0  0  0  0  0  0  0  0  0  0  0  0
   -2.6754   -3.9079   -0.6454 H   0  0  0  0  0  0  0  0  0  0  0  0
   -2.9384   -3.8645    1.8050 H   0  0  0  0  0  0  0  0  0  0  0  0
   -3.8722   -2.3341    1.7073 H   0  0  0  0  0  0  0  0  0  0  0  0
   -2.3848   -2.4312    2.7212 H   0  0  0  0  0  0  0  0  0  0  0  0
   -3.7362   -0.3078    0.7655 H   0  0  0  0  0  0  0  0  0  0  0  0
   -2.9464    0.1993   -0.7161 H   0  0  0  0  0  0  0  0  0  0  0  0
   -3.4316    2.0036    0.9881 H   0  0  0  0  0  0  0  0  0  0  0  0
    2.1610    2.2768   -1.5854 H   0  0  0  0  0  0  0  0  0  0  0  0
   -0.4423    7.4087   -0.8885 H   0  0  0  0  0  0  0  0  0  0  0  0
    1.5524    0.3085    1.4417 H   0  0  0  0  0  0  0  0  0  0  0  0
    2.8049    0.2303   -2.6741 H   0  0  0  0  0  0  0  0  0  0  0  0
    1.7863    6.5154   -1.6589 H   0  0  0  0  0  0  0  0  0  0  0  0
    2.0666   -2.0976    1.6370 H   0  0  0  0  0  0  0  0  0  0  0  0
    3.3056   -2.1459   -2.4895 H   0  0  0  0  0  0  0  0  0  0  0  0
    4.7071   -3.7952   -1.2391 H   0  0  0  0  0  0  0  0  0  0  0  0
    3.2391   -4.4285   -2.0805 H   0  0  0  0  0  0  0  0  0  0  0  0
    3.9510   -5.3090   -0.7227 H   0  0  0  0  0  0  0  0  0  0  0  0
  1  2  1  0
  2  3  1  0
  2  4  1  0
  5  1  1  0
  6  5  1  0
  7  6  1  0
  8  7  2  0
  7  9  1  0
 10  8  1  0
  9 11  2  0
 12 10  1  0
 13 10  2  0
 11 14  1  0
 13 11  1  0
 15 12  1  0
 16 13  1  0
 14 17  2  0
 18 15  2  0
 15 19  1  0
 20 16  2  0
 17 20  1  0
 21 18  1  0
 19 22  2  0
 23 21  2  0
 22 23  1  0
 24 23  1  0
 25 24  1  0
  1 26  1  0
  1 27  1  0
  2 28  1  0
  3 29  1  0
  3 30  1  0
  3 31  1  0
  4 32  1  0
  4 33  1  0
  4 34  1  0
  5 35  1  0
  5 36  1  0
  6 37  1  0
 12 38  1  0
 17 39  1  0
 18 40  1  0
 19 41  1  0
 20 42  1  0
 21 43  1  0
 22 44  1  0
 25 45  1  0
 25 46  1  0
 25 47  1  0
M  CHG  1   2   1
M  END
>  <ScrubInfo>  (1) 
{"isomerGroup": 0, "isomerId": 0, "confId": 0, "nr_conformers:": 1, "nr_isomers:": 9}

$$$$
_i1
     RDKit          3D

 47 49  0  0  0  0  0  0  0  0999 V2000
   -0.0958    0.8581   -0.5421 N   0  0  0  0  0  0  0  0  0  0  0  0
    0.9151    1.7879   -0.4150 C   0  0  0  0  0  0  0  0  0  0  0  0
    2.2428    1.4420   -0.6287 N   0  0  0  0  0  0  0  0  0  0  0  0
    2.8969    0.2450   -0.2781 C   0  0  0  0  0  0  0  0  0  0  0  0
    2.3757   -0.6868    0.6247 C   0  0  0  0  0  0  0  0  0  0  0  0
    3.0597   -1.8757    0.8994 C   0  0  0  0  0  0  0  0  0  0  0  0
    4.2762   -2.1599    0.2783 C   0  0  0  0  0  0  0  0  0  0  0  0
    4.8326   -3.3563    0.6326 O   0  0  0  0  0  0  0  0  0  0  0  0
    6.1131   -3.6568    0.0893 C   0  0  0  0  0  0  0  0  0  0  0  0
    4.8073   -1.2390   -0.6207 C   0  0  0  0  0  0  0  0  0  0  0  0
    4.1216   -0.0478   -0.8929 C   0  0  0  0  0  0  0  0  0  0  0  0
    0.5871    3.0743   -0.1421 C   0  0  0  0  0  0  0  0  0  0  0  0
    1.5231    4.0808   -0.0324 N   0  0  0  0  0  0  0  0  0  0  0  0
    1.0418    5.2416    0.2689 C   0  0  0  0  0  0  0  0  0  0  0  0
   -0.4158    5.4840    0.4852 C   0  0  0  0  0  0  0  0  0  0  0  0
   -1.3062    4.5577    0.3723 N   0  0  0  0  0  0  0  0  0  0  0  0
   -0.8971    3.2899    0.0363 C   0  0  0  0  0  0  0  0  0  0  0  0
   -1.8288    2.4047   -0.0936 N   0  0  0  0  0  0  0  0  0  0  0  0
   -1.4225    1.1479   -0.4345 C   0  0  0  0  0  0  0  0  0  0  0  0
   -2.4135    0.3499   -0.6141 N   0  0  0  0  0  0  0  0  0  0  0  0
   -2.1694   -1.0502   -0.9631 C   0  0  0  0  0  0  0  0  0  0  0  0
   -3.5481   -1.6745   -1.2531 C   0  0  0  0  0  0  0  0  0  0  0  0
   -4.5742   -1.0023   -0.3550 N   0  0  0  0  0  4  0  0  0  0  0  0
   -4.6204   -1.5601    1.0296 C   0  0  0  0  0  0  0  0  0  0  0  0
   -5.9215   -0.8714   -0.9803 C   0  0  0  0  0  0  0  0  0  0  0  0
    0.2146   -0.0300   -0.9059 H   0  0  0  0  0  0  0  0  0  0  0  0
    2.8626    2.2552   -0.5795 H   0  0  0  0  0  0  0  0  0  0  0  0
    1.4549   -0.4898    1.1648 H   0  0  0  0  0  0  0  0  0  0  0  0
    2.6489   -2.5819    1.6171 H   0  0  0  0  0  0  0  0  0  0  0  0
    6.8552   -2.9091    0.3886 H   0  0  0  0  0  0  0  0  0  0  0  0
    6.0650   -3.7528   -1.0003 H   0  0  0  0  0  0  0  0  0  0  0  0
    6.4301   -4.6223    0.4952 H   0  0  0  0  0  0  0  0  0  0  0  0
    5.7489   -1.4136   -1.1311 H   0  0  0  0  0  0  0  0  0  0  0  0
    4.5515    0.6505   -1.6084 H   0  0  0  0  0  0  0  0  0  0  0  0
    1.6888    6.1250    0.3847 H   0  0  0  0  0  0  0  0  0  0  0  0
   -0.6864    6.5174    0.7509 H   0  0  0  0  0  0  0  0  0  0  0  0
   -1.7010   -1.5703   -0.1199 H   0  0  0  0  0  0  0  0  0  0  0  0
   -1.5284   -1.1550   -1.8451 H   0  0  0  0  0  0  0  0  0  0  0  0
   -3.8340   -1.4521   -2.2870 H   0  0  0  0  0  0  0  0  0  0  0  0
   -3.5786   -2.7562   -1.0907 H   0  0  0  0  0  0  0  0  0  0  0  0
   -4.1796   -0.0393   -0.2672 H   0  0  0  0  0  0  0  0  0  0  0  0
   -3.6114   -1.5433    1.4487 H   0  0  0  0  0  0  0  0  0  0  0  0
   -5.2796   -0.9277    1.6303 H   0  0  0  0  0  0  0  0  0  0  0  0
   -5.0029   -2.5829    0.9788 H   0  0  0  0  0  0  0  0  0  0  0  0
   -5.8123   -0.3308   -1.9243 H   0  0  0  0  0  0  0  0  0  0  0  0
   -6.3250   -1.8735   -1.1474 H   0  0  0  0  0  0  0  0  0  0  0  0
   -6.5612   -0.3007   -0.3019 H   0  0  0  0  0  0  0  0  0  0  0  0
  1  2  1  0
  2  3  1  0
  3  4  1  0
  4  5  2  0
  5  6  1  0
  6  7  2  0
  7  8  1  0
  8  9  1  0
  7 10  1  0
 10 11  2  0
  2 12  2  0
 12 13  1  0
 13 14  2  0
 14 15  1  0
 15 16  2  0
 16 17  1  0
 17 18  2  0
 18 19  1  0
 19 20  2  3
 20 21  1  0
 21 22  1  0
 22 23  1  0
 23 24  1  0
 23 25  1  0
 19  1  1  0
 11  4  1  0
 17 12  1  0
  1 26  1  0
  3 27  1  0
  5 28  1  0
  6 29  1  0
  9 30  1  0
  9 31  1  0
  9 32  1  0
 10 33  1  0
 11 34  1  0
 14 35  1  0
 15 36  1  0
 21 37  1  0
 21 38  1  0
 22 39  1  0
 22 40  1  0
 23 41  1  0
 24 42  1  0
 24 43  1  0
 24 44  1  0
 25 45  1  0
 25 46  1  0
 25 47  1  0
M  CHG  1  23   1
M  END
>  <ScrubInfo>  (2) 
{"isomerGroup": 0, "isomerId": 1, "confId": 0, "nr_conformers:": 1, "nr_isomers:": 9}

$$$$
_i2
     RDKit          3D

 47 49  0  0  0  0  0  0  0  0999 V2000
   -0.9051   -1.8176    0.5782 N   0  0  0  0  0  0  0  0  0  0  0  0
   -1.8668   -1.3913   -0.2809 C   0  0  0  0  0  0  0  0  0  0  0  0
   -3.0334   -2.0982   -0.2391 N   0  0  0  0  0  0  0  0  0  0  0  0
   -4.0512   -2.0373   -1.2939 C   0  0  0  0  0  0  0  0  0  0  0  0
   -4.8302   -0.7001   -1.3330 C   0  0  0  0  0  0  0  0  0  0  0  0
   -4.0404    0.4327   -1.9520 N   0  0  0  0  0  4  0  0  0  0  0  0
   -3.9647    0.3986   -3.4456 C   0  0  0  0  0  0  0  0  0  0  0  0
   -4.4401    1.7790   -1.4374 C   0  0  0  0  0  0  0  0  0  0  0  0
   -1.7083   -0.3679   -1.0667 N   0  0  0  0  0  0  0  0  0  0  0  0
   -0.4553    0.2833   -0.9970 C   0  0  0  0  0  0  0  0  0  0  0  0
   -0.3780    1.3536   -1.8239 N   0  0  0  0  0  0  0  0  0  0  0  0
    0.8089    2.0131   -1.7922 C   0  0  0  0  0  0  0  0  0  0  0  0
    1.8614    1.6354   -0.9680 C   0  0  0  0  0  0  0  0  0  0  0  0
    1.7822    0.5787   -0.1294 N   0  0  0  0  0  0  0  0  0  0  0  0
    0.6089   -0.0923   -0.1613 C   0  0  0  0  0  0  0  0  0  0  0  0
    0.3525   -1.2720    0.7235 C   0  0  0  0  0  0  0  0  0  0  0  0
    1.1369   -1.8421    1.5996 N   0  0  0  0  0  0  0  0  0  0  0  0
    2.4400   -1.3868    1.8257 C   0  0  0  0  0  0  0  0  0  0  0  0
    3.5057   -1.8937    1.0812 C   0  0  0  0  0  0  0  0  0  0  0  0
    4.8105   -1.4649    1.3376 C   0  0  0  0  0  0  0  0  0  0  0  0
    5.0691   -0.5418    2.3537 C   0  0  0  0  0  0  0  0  0  0  0  0
    6.3867   -0.2063    2.4980 O   0  0  0  0  0  0  0  0  0  0  0  0
    6.7148    0.6678    3.5708 C   0  0  0  0  0  0  0  0  0  0  0  0
    4.0086   -0.0526    3.1166 C   0  0  0  0  0  0  0  0  0  0  0  0
    2.7013   -0.4814    2.8564 C   0  0  0  0  0  0  0  0  0  0  0  0
   -1.0827   -2.5826    1.2151 H   0  0  0  0  0  0  0  0  0  0  0  0
   -2.9381   -3.0368    0.1435 H   0  0  0  0  0  0  0  0  0  0  0  0
   -4.7775   -2.8314   -1.0842 H   0  0  0  0  0  0  0  0  0  0  0  0
   -3.6004   -2.2742   -2.2631 H   0  0  0  0  0  0  0  0  0  0  0  0
   -5.7505   -0.8009   -1.9183 H   0  0  0  0  0  0  0  0  0  0  0  0
   -5.0931   -0.3994   -0.3124 H   0  0  0  0  0  0  0  0  0  0  0  0
   -3.0565    0.3016   -1.6293 H   0  0  0  0  0  0  0  0  0  0  0  0
   -3.5620   -0.5683   -3.7543 H   0  0  0  0  0  0  0  0  0  0  0  0
   -4.9704    0.5475   -3.8475 H   0  0  0  0  0  0  0  0  0  0  0  0
   -3.2927    1.1965   -3.7731 H   0  0  0  0  0  0  0  0  0  0  0  0
   -4.3327    1.7759   -0.3494 H   0  0  0  0  0  0  0  0  0  0  0  0
   -5.4768    1.9674   -1.7285 H   0  0  0  0  0  0  0  0  0  0  0  0
   -3.7695    2.5265   -1.8700 H   0  0  0  0  0  0  0  0  0  0  0  0
    0.8981    2.8674   -2.4559 H   0  0  0  0  0  0  0  0  0  0  0  0
    2.8017    2.1780   -0.9599 H   0  0  0  0  0  0  0  0  0  0  0  0
    3.3229   -2.6231    0.2986 H   0  0  0  0  0  0  0  0  0  0  0  0
    5.6330   -1.8594    0.7464 H   0  0  0  0  0  0  0  0  0  0  0  0
    6.4384    0.2308    4.5361 H   0  0  0  0  0  0  0  0  0  0  0  0
    6.2511    1.6502    3.4336 H   0  0  0  0  0  0  0  0  0  0  0  0
    7.8000    0.8086    3.5674 H   0  0  0  0  0  0  0  0  0  0  0  0
    4.1616    0.6577    3.9216 H   0  0  0  0  0  0  0  0  0  0  0  0
    1.8821   -0.1066    3.4626 H   0  0  0  0  0  0  0  0  0  0  0  0
  1  2  1  0
  2  3  1  0
  3  4  1  0
  4  5  1  0
  5  6  1  0
  6  7  1  0
  6  8  1  0
  2  9  2  0
  9 10  1  0
 10 11  2  0
 11 12  1  0
 12 13  2  0
 13 14  1  0
 14 15  2  0
 15 16  1  0
 16 17  2  3
 17 18  1  0
 18 19  2  0
 19 20  1  0
 20 21  2  0
 21 22  1  0
 22 23  1  0
 21 24  1  0
 24 25  2  0
 16  1  1  0
 25 18  1  0
 15 10  1  0
  1 26  1  0
  3 27  1  0
  4 28  1  0
  4 29  1  0
  5 30  1  0
  5 31  1  0
  6 32  1  0
  7 33  1  0
  7 34  1  0
  7 35  1  0
  8 36  1  0
  8 37  1  0
  8 38  1  0
 12 39  1  0
 13 40  1  0
 19 41  1  0
 20 42  1  0
 23 43  1  0
 23 44  1  0
 23 45  1  0
 24 46  1  0
 25 47  1  0
M  CHG  1   6   1
M  END
>  <ScrubInfo>  (3) 
{"isomerGroup": 0, "isomerId": 2, "confId": 0, "nr_conformers:": 1, "nr_isomers:": 9}

$$$$
_i3
     RDKit          3D

 47 49  0  0  0  0  0  0  0  0999 V2000
   -1.4834   -3.5420    0.5587 N   0  0  0  0  0  0  0  0  0  0  0  0
   -1.7249   -2.2191    0.3767 C   0  0  0  0  0  0  0  0  0  0  0  0
   -2.8228   -1.7056    0.8284 N   0  0  0  0  0  0  0  0  0  0  0  0
   -3.1000   -0.3008    0.5064 C   0  0  0  0  0  0  0  0  0  0  0  0
   -2.3345    0.6527    1.4322 C   0  0  0  0  0  0  0  0  0  0  0  0
   -2.3823    2.1013    0.9773 N   0  0  0  0  0  4  0  0  0  0  0  0
   -3.7657    2.6714    0.9059 C   0  0  0  0  0  0  0  0  0  0  0  0
   -1.5896    2.3482   -0.2780 C   0  0  0  0  0  0  0  0  0  0  0  0
   -0.8263   -1.3947   -0.2597 N   0  0  0  0  0  0  0  0  0  0  0  0
    0.2266   -1.9234   -0.8318 C   0  0  0  0  0  0  0  0  0  0  0  0
    1.1600   -1.1445   -1.5017 N   0  0  0  0  0  0  0  0  0  0  0  0
    1.6454    0.0770   -0.9869 C   0  0  0  0  0  0  0  0  0  0  0  0
    2.0513    1.0723   -1.8797 C   0  0  0  0  0  0  0  0  0  0  0  0
    2.5712    2.2805   -1.4074 C   0  0  0  0  0  0  0  0  0  0  0  0
    2.7379    2.4958   -0.0385 C   0  0  0  0  0  0  0  0  0  0  0  0
    3.2451    3.7192    0.2957 O   0  0  0  0  0  0  0  0  0  0  0  0
    3.7994    3.8438    1.6012 C   0  0  0  0  0  0  0  0  0  0  0  0
    2.3711    1.4949    0.8590 C   0  0  0  0  0  0  0  0  0  0  0  0
    1.8334    0.2916    0.3850 C   0  0  0  0  0  0  0  0  0  0  0  0
    0.4754   -3.3924   -0.8120 C   0  0  0  0  0  0  0  0  0  0  0  0
    1.5639   -3.8706   -1.4700 N   0  0  0  0  0  0  0  0  0  0  0  0
    1.7006   -5.2140   -1.3763 C   0  0  0  0  0  0  0  0  0  0  0  0
    0.8083   -6.0080   -0.6635 C   0  0  0  0  0  0  0  0  0  0  0  0
   -0.2675   -5.5006   -0.0047 N   0  0  0  0  0  0  0  0  0  0  0  0
   -0.4274   -4.1634   -0.0872 C   0  0  0  0  0  0  0  0  0  0  0  0
   -2.1685   -4.1328    1.0018 H   0  0  0  0  0  0  0  0  0  0  0  0
   -4.1766   -0.1443    0.6418 H   0  0  0  0  0  0  0  0  0  0  0  0
   -2.9099   -0.1018   -0.5541 H   0  0  0  0  0  0  0  0  0  0  0  0
   -2.7621    0.6282    2.4415 H   0  0  0  0  0  0  0  0  0  0  0  0
   -1.2750    0.3962    1.5290 H   0  0  0  0  0  0  0  0  0  0  0  0
   -1.8916    2.6233    1.7136 H   0  0  0  0  0  0  0  0  0  0  0  0
   -4.2670    2.4720    1.8564 H   0  0  0  0  0  0  0  0  0  0  0  0
   -3.6766    3.7501    0.7517 H   0  0  0  0  0  0  0  0  0  0  0  0
   -4.3001    2.2081    0.0728 H   0  0  0  0  0  0  0  0  0  0  0  0
   -1.5270    3.4300   -0.4240 H   0  0  0  0  0  0  0  0  0  0  0  0
   -2.0958    1.8782   -1.1236 H   0  0  0  0  0  0  0  0  0  0  0  0
   -0.5908    1.9384   -0.1338 H   0  0  0  0  0  0  0  0  0  0  0  0
    1.9301   -1.6970   -1.8900 H   0  0  0  0  0  0  0  0  0  0  0  0
    1.9517    0.9200   -2.9524 H   0  0  0  0  0  0  0  0  0  0  0  0
    2.8703    3.0513   -2.1149 H   0  0  0  0  0  0  0  0  0  0  0  0
    3.0101    3.8397    2.3597 H   0  0  0  0  0  0  0  0  0  0  0  0
    4.3104    4.8098    1.6566 H   0  0  0  0  0  0  0  0  0  0  0  0
    4.5398    3.0611    1.7983 H   0  0  0  0  0  0  0  0  0  0  0  0
    2.4973    1.6159    1.9300 H   0  0  0  0  0  0  0  0  0  0  0  0
    1.5774   -0.4838    1.1031 H   0  0  0  0  0  0  0  0  0  0  0  0
    2.5523   -5.6478   -1.8912 H   0  0  0  0  0  0  0  0  0  0  0  0
    0.9365   -7.0844   -0.6011 H   0  0  0  0  0  0  0  0  0  0  0  0
  1  2  1  0
  2  3  2  3
  3  4  1  0
  4  5  1  0
  5  6  1  0
  6  7  1  0
  6  8  1  0
  2  9  1  0
  9 10  2  0
 10 11  1  0
 11 12  1  0
 12 13  2  0
 13 14  1  0
 14 15  2  0
 15 16  1  0
 16 17  1  0
 15 18  1  0
 18 19  2  0
 10 20  1  0
 20 21  2  0
 21 22  1  0
 22 23  2  0
 23 24  1  0
 24 25  2  0
 25  1  1  0
 19 12  1  0
 25 20  1  0
  1 26  1  0
  4 27  1  0
  4 28  1  0
  5 29  1  0
  5 30  1  0
  6 31  1  0
  7 32  1  0
  7 33  1  0
  7 34  1  0
  8 35  1  0
  8 36  1  0
  8 37  1  0
 11 38  1  0
 13 39  1  0
 14 40  1  0
 17 41  1  0
 17 42  1  0
 17 43  1  0
 18 44  1  0
 19 45  1  0
 22 46  1  0
 23 47  1  0
M  CHG  1   6   1
M  END
>  <ScrubInfo>  (4) 
{"isomerGroup": 0, "isomerId": 3, "confId": 0, "nr_conformers:": 1, "nr_isomers:": 9}

$$$$
_i4
     RDKit          3D

 47 49  0  0  0  0  0  0  0  0999 V2000
   -1.4591   -1.0971   -2.8195 N   0  0  0  0  0  0  0  0  0  0  0  0
   -2.0968   -0.4798   -1.8009 C   0  0  0  0  0  0  0  0  0  0  0  0
   -3.4548   -0.4474   -1.9188 N   0  0  0  0  0  0  0  0  0  0  0  0
   -4.3576    0.5523   -1.3324 C   0  0  0  0  0  0  0  0  0  0  0  0
   -3.9446    1.2406   -0.0084 C   0  0  0  0  0  0  0  0  0  0  0  0
   -3.3916    0.3061    1.0397 N   0  0  0  0  0  4  0  0  0  0  0  0
   -4.2960   -0.7942    1.4695 C   0  0  0  0  0  0  0  0  0  0  0  0
   -2.7747    1.0387    2.1941 C   0  0  0  0  0  0  0  0  0  0  0  0
   -1.5142   -0.0095   -0.7461 N   0  0  0  0  0  0  0  0  0  0  0  0
   -0.1405   -0.1219   -0.6083 C   0  0  0  0  0  0  0  0  0  0  0  0
    0.2354    0.2742    0.5713 N   0  0  0  0  0  0  0  0  0  0  0  0
    1.5762    0.2269    0.9642 C   0  0  0  0  0  0  0  0  0  0  0  0
    2.0943   -0.9163    1.5742 C   0  0  0  0  0  0  0  0  0  0  0  0
    3.4225   -0.9419    2.0068 C   0  0  0  0  0  0  0  0  0  0  0  0
    4.2435    0.1777    1.8515 C   0  0  0  0  0  0  0  0  0  0  0  0
    5.5191    0.0174    2.3159 O   0  0  0  0  0  0  0  0  0  0  0  0
    6.3967    1.1295    2.1889 C   0  0  0  0  0  0  0  0  0  0  0  0
    3.7211    1.3298    1.2641 C   0  0  0  0  0  0  0  0  0  0  0  0
    2.3900    1.3542    0.8305 C   0  0  0  0  0  0  0  0  0  0  0  0
    0.6643   -0.6673   -1.7460 C   0  0  0  0  0  0  0  0  0  0  0  0
    2.0188   -0.6839   -1.7051 N   0  0  0  0  0  0  0  0  0  0  0  0
    2.6203   -1.2151   -2.7922 C   0  0  0  0  0  0  0  0  0  0  0  0
    1.9002   -1.7015   -3.8720 C   0  0  0  0  0  0  0  0  0  0  0  0
    0.5440   -1.6783   -3.9159 N   0  0  0  0  0  0  0  0  0  0  0  0
   -0.0686   -1.1506   -2.8319 C   0  0  0  0  0  0  0  0  0  0  0  0
   -1.8939   -1.4407   -3.6617 H   0  0  0  0  0  0  0  0  0  0  0  0
   -3.8114   -0.7972   -2.8043 H   0  0  0  0  0  0  0  0  0  0  0  0
   -5.3269    0.0631   -1.1815 H   0  0  0  0  0  0  0  0  0  0  0  0
   -4.5281    1.3355   -2.0806 H   0  0  0  0  0  0  0  0  0  0  0  0
   -4.8023    1.7585    0.4357 H   0  0  0  0  0  0  0  0  0  0  0  0
   -3.1673    1.9861   -0.2139 H   0  0  0  0  0  0  0  0  0  0  0  0
   -2.5721   -0.1206    0.5574 H   0  0  0  0  0  0  0  0  0  0  0  0
   -3.7600   -1.4200    2.1884 H   0  0  0  0  0  0  0  0  0  0  0  0
   -5.1855   -0.3535    1.9270 H   0  0  0  0  0  0  0  0  0  0  0  0
   -4.5631   -1.3948    0.5975 H   0  0  0  0  0  0  0  0  0  0  0  0
   -2.0591    1.7667    1.8029 H   0  0  0  0  0  0  0  0  0  0  0  0
   -3.5725    1.5382    2.7501 H   0  0  0  0  0  0  0  0  0  0  0  0
   -2.2561    0.3102    2.8230 H   0  0  0  0  0  0  0  0  0  0  0  0
    1.4694   -1.7927    1.7118 H   0  0  0  0  0  0  0  0  0  0  0  0
    3.8214   -1.8403    2.4715 H   0  0  0  0  0  0  0  0  0  0  0  0
    6.5491    1.3936    1.1372 H   0  0  0  0  0  0  0  0  0  0  0  0
    6.0322    1.9873    2.7637 H   0  0  0  0  0  0  0  0  0  0  0  0
    7.3669    0.8388    2.6033 H   0  0  0  0  0  0  0  0  0  0  0  0
    4.3183    2.2252    1.1297 H   0  0  0  0  0  0  0  0  0  0  0  0
    1.9897    2.2578    0.3804 H   0  0  0  0  0  0  0  0  0  0  0  0
    3.7051   -1.2413   -2.7729 H   0  0  0  0  0  0  0  0  0  0  0  0
    2.3982   -2.1260   -4.7380 H   0  0  0  0  0  0  0  0  0  0  0  0
  1  2  1  0
  2  3  1  0
  3  4  1  0
  4  5  1  0
  5  6  1  0
  6  7  1  0
  6  8  1  0
  2  9  2  0
  9 10  1  0
 10 11  2  3
 11 12  1  0
 12 13  2  0
 13 14  1  0
 14 15  2  0
 15 16  1  0
 16 17  1  0
 15 18  1  0
 18 19  2  0
 10 20  1  0
 20 21  2  0
 21 22  1  0
 22 23  2  0
 23 24  1  0
 24 25  2  0
 25  1  1  0
 19 12  1  0
 25 20  1  0
  1 26  1  0
  3 27  1  0
  4 28  1  0
  4 29  1  0
  5 30  1  0
  5 31  1  0
  6 32  1  0
  7 33  1  0
  7 34  1  0
  7 35  1  0
  8 36  1  0
  8 37  1  0
  8 38  1  0
 13 39  1  0
 14 40  1  0
 17 41  1  0
 17 42  1  0
 17 43  1  0
 18 44  1  0
 19 45  1  0
 22 46  1  0
 23 47  1  0
M  CHG  1   6   1
M  END
>  <ScrubInfo>  (5) 
{"isomerGroup": 0, "isomerId": 4, "confId": 0, "nr_conformers:": 1, "nr_isomers:": 9}

$$$$
_i5
     RDKit          3D

 47 49  0  0  0  0  0  0  0  0999 V2000
   -1.5575   -4.2063   -0.4072 N   0  0  0  0  0  0  0  0  0  0  0  0
   -0.7205   -5.2899   -0.3686 C   0  0  0  0  0  0  0  0  0  0  0  0
    0.6103   -5.1350   -0.2712 C   0  0  0  0  0  0  0  0  0  0  0  0
    1.2384   -3.9058   -0.2031 N   0  0  0  0  0  0  0  0  0  0  0  0
    0.4638   -2.8504   -0.2375 C   0  0  0  0  0  0  0  0  0  0  0  0
    1.0821   -1.4784   -0.1679 C   0  0  0  0  0  0  0  0  0  0  0  0
    2.4566   -1.4544   -0.0716 N   0  0  0  0  0  0  0  0  0  0  0  0
    3.3432   -0.3703    0.0136 C   0  0  0  0  0  0  0  0  0  0  0  0
    2.9488    0.9690    0.0165 C   0  0  0  0  0  0  0  0  0  0  0  0
    3.8930    2.0003    0.1036 C   0  0  0  0  0  0  0  0  0  0  0  0
    5.2554    1.7196    0.1897 C   0  0  0  0  0  0  0  0  0  0  0  0
    6.0642    2.8176    0.2691 O   0  0  0  0  0  0  0  0  0  0  0  0
    7.4639    2.5811    0.3599 C   0  0  0  0  0  0  0  0  0  0  0  0
    5.6677    0.3912    0.1880 C   0  0  0  0  0  0  0  0  0  0  0  0
    4.7197   -0.6384    0.1007 C   0  0  0  0  0  0  0  0  0  0  0  0
    0.2753   -0.4696   -0.2051 N   0  0  0  0  0  0  0  0  0  0  0  0
   -1.0703   -0.6606   -0.3024 C   0  0  0  0  0  0  0  0  0  0  0  0
   -1.7384    0.4374   -0.3264 N   0  0  0  0  0  0  0  0  0  0  0  0
   -3.1886    0.3761   -0.4286 C   0  0  0  0  0  0  0  0  0  0  0  0
   -3.7074    1.8206   -0.4425 C   0  0  0  0  0  0  0  0  0  0  0  0
   -5.1953    1.8939   -0.7383 N   0  0  0  0  0  4  0  0  0  0  0  0
   -5.6031    3.3025   -1.0784 C   0  0  0  0  0  0  0  0  0  0  0  0
   -6.0472    1.3331    0.3646 C   0  0  0  0  0  0  0  0  0  0  0  0
   -1.7441   -1.8512   -0.3740 N   0  0  0  0  0  0  0  0  0  0  0  0
   -1.0426   -2.9358   -0.3457 C   0  0  0  0  0  0  0  0  0  0  0  0
   -2.5555   -4.3508   -0.4805 H   0  0  0  0  0  0  0  0  0  0  0  0
   -1.1953   -6.2645   -0.4211 H   0  0  0  0  0  0  0  0  0  0  0  0
    1.2620   -6.0059   -0.2416 H   0  0  0  0  0  0  0  0  0  0  0  0
    2.8950   -2.3736   -0.0582 H   0  0  0  0  0  0  0  0  0  0  0  0
    1.9036    1.2525   -0.0479 H   0  0  0  0  0  0  0  0  0  0  0  0
    3.5571    3.0345    0.1040 H   0  0  0  0  0  0  0  0  0  0  0  0
    7.9642    3.5527    0.4159 H   0  0  0  0  0  0  0  0  0  0  0  0
    7.7119    2.0255    1.2703 H   0  0  0  0  0  0  0  0  0  0  0  0
    7.8356    2.0657   -0.5319 H   0  0  0  0  0  0  0  0  0  0  0  0
    6.7153    0.1167    0.2527 H   0  0  0  0  0  0  0  0  0  0  0  0
    5.0796   -1.6652    0.1019 H   0  0  0  0  0  0  0  0  0  0  0  0
   -3.6098   -0.1616    0.4278 H   0  0  0  0  0  0  0  0  0  0  0  0
   -3.4923   -0.1282   -1.3538 H   0  0  0  0  0  0  0  0  0  0  0  0
   -3.5302    2.3257    0.5141 H   0  0  0  0  0  0  0  0  0  0  0  0
   -3.2002    2.3857   -1.2336 H   0  0  0  0  0  0  0  0  0  0  0  0
   -5.3624    1.3298   -1.5818 H   0  0  0  0  0  0  0  0  0  0  0  0
   -5.0137    3.6301   -1.9389 H   0  0  0  0  0  0  0  0  0  0  0  0
   -5.4183    3.9390   -0.2089 H   0  0  0  0  0  0  0  0  0  0  0  0
   -6.6644    3.2948   -1.3408 H   0  0  0  0  0  0  0  0  0  0  0  0
   -5.8211    0.2704    0.4728 H   0  0  0  0  0  0  0  0  0  0  0  0
   -5.8325    1.8800    1.2864 H   0  0  0  0  0  0  0  0  0  0  0  0
   -7.0957    1.4509    0.0775 H   0  0  0  0  0  0  0  0  0  0  0  0
  1  2  1  0
  2  3  2  0
  3  4  1  0
  4  5  2  0
  5  6  1  0
  6  7  1  0
  7  8  1  0
  8  9  2  0
  9 10  1  0
 10 11  2  0
 11 12  1  0
 12 13  1  0
 11 14  1  0
 14 15  2  0
  6 16  2  0
 16 17  1  0
 17 18  2  3
 18 19  1  0
 19 20  1  0
 20 21  1  0
 21 22  1  0
 21 23  1  0
 17 24  1  0
 24 25  2  0
 25  1  1  0
 25  5  1  0
 15  8  1  0
  1 26  1  0
  2 27  1  0
  3 28  1  0
  7 29  1  0
  9 30  1  0
 10 31  1  0
 13 32  1  0
 13 33  1  0
 13 34  1  0
 14 35  1  0
 15 36  1  0
 19 37  1  0
 19 38  1  0
 20 39  1  0
 20 40  1  0
 21 41  1  0
 22 42  1  0
 22 43  1  0
 22 44  1  0
 23 45  1  0
 23 46  1  0
 23 47  1  0
M  CHG  1  21   1
M  END
>  <ScrubInfo>  (6) 
{"isomerGroup": 0, "isomerId": 5, "confId": 0, "nr_conformers:": 1, "nr_isomers:": 9}

$$$$
_i6
     RDKit          3D

 47 49  0  0  0  0  0  0  0  0999 V2000
   -2.0465   -3.2291    0.9139 N   0  0  0  0  0  0  0  0  0  0  0  0
   -1.6296   -4.5257    0.7538 C   0  0  0  0  0  0  0  0  0  0  0  0
   -0.4094   -4.8071    0.2708 C   0  0  0  0  0  0  0  0  0  0  0  0
    0.5094   -3.8454   -0.0900 N   0  0  0  0  0  0  0  0  0  0  0  0
    0.1587   -2.5961    0.0634 C   0  0  0  0  0  0  0  0  0  0  0  0
    1.0515   -1.4456   -0.2772 C   0  0  0  0  0  0  0  0  0  0  0  0
    2.2242   -1.6873   -0.7764 N   0  0  0  0  0  0  0  0  0  0  0  0
    3.0672   -0.6133   -1.0898 C   0  0  0  0  0  0  0  0  0  0  0  0
    3.8579   -0.0139   -0.1080 C   0  0  0  0  0  0  0  0  0  0  0  0
    4.7058    1.0468   -0.4365 C   0  0  0  0  0  0  0  0  0  0  0  0
    4.7909    1.5075   -1.7526 C   0  0  0  0  0  0  0  0  0  0  0  0
    5.6549    2.5507   -1.9380 O   0  0  0  0  0  0  0  0  0  0  0  0
    5.9050    2.9461   -3.2814 C   0  0  0  0  0  0  0  0  0  0  0  0
    4.0180    0.8967   -2.7404 C   0  0  0  0  0  0  0  0  0  0  0  0
    3.1652   -0.1627   -2.4079 C   0  0  0  0  0  0  0  0  0  0  0  0
    0.6069   -0.1699   -0.0532 N   0  0  0  0  0  0  0  0  0  0  0  0
   -0.5727    0.0268    0.4348 C   0  0  0  0  0  0  0  0  0  0  0  0
   -0.9169    1.3335    0.6186 N   0  0  0  0  0  0  0  0  0  0  0  0
   -1.7700    1.8146    1.6942 C   0  0  0  0  0  0  0  0  0  0  0  0
   -3.2015    2.0513    1.1771 C   0  0  0  0  0  0  0  0  0  0  0  0
   -3.8150    0.7538    0.6765 N   0  0  0  0  0  4  0  0  0  0  0  0
   -4.5829    0.9257   -0.5972 C   0  0  0  0  0  0  0  0  0  0  0  0
   -4.5974    0.0343    1.7286 C   0  0  0  0  0  0  0  0  0  0  0  0
   -1.5019   -0.9350    0.7472 N   0  0  0  0  0  0  0  0  0  0  0  0
   -1.1979   -2.1917    0.6045 C   0  0  0  0  0  0  0  0  0  0  0  0
   -2.9371   -3.0681    1.3590 H   0  0  0  0  0  0  0  0  0  0  0  0
   -2.3346   -5.2999    1.0402 H   0  0  0  0  0  0  0  0  0  0  0  0
   -0.0873   -5.8392    0.1474 H   0  0  0  0  0  0  0  0  0  0  0  0
    3.8190   -0.3768    0.9144 H   0  0  0  0  0  0  0  0  0  0  0  0
    5.3166    1.5074    0.3359 H   0  0  0  0  0  0  0  0  0  0  0  0
    6.3031    2.1146   -3.8726 H   0  0  0  0  0  0  0  0  0  0  0  0
    5.0032    3.3628   -3.7416 H   0  0  0  0  0  0  0  0  0  0  0  0
    6.6636    3.7345   -3.2620 H   0  0  0  0  0  0  0  0  0  0  0  0
    4.0576    1.2137   -3.7769 H   0  0  0  0  0  0  0  0  0  0  0  0
    2.5783   -0.6462   -3.1837 H   0  0  0  0  0  0  0  0  0  0  0  0
   -0.0944    1.9175    0.4541 H   0  0  0  0  0  0  0  0  0  0  0  0
   -1.3704    2.7674    2.0592 H   0  0  0  0  0  0  0  0  0  0  0  0
   -1.7663    1.1209    2.5426 H   0  0  0  0  0  0  0  0  0  0  0  0
   -3.1778    2.7530    0.3354 H   0  0  0  0  0  0  0  0  0  0  0  0
   -3.8541    2.4595    1.9559 H   0  0  0  0  0  0  0  0  0  0  0  0
   -3.0072    0.1418    0.4456 H   0  0  0  0  0  0  0  0  0  0  0  0
   -3.9067    1.3396   -1.3501 H   0  0  0  0  0  0  0  0  0  0  0  0
   -5.4225    1.5998   -0.4084 H   0  0  0  0  0  0  0  0  0  0  0  0
   -4.9349   -0.0580   -0.9188 H   0  0  0  0  0  0  0  0  0  0  0  0
   -4.8926   -0.9387    1.3271 H   0  0  0  0  0  0  0  0  0  0  0  0
   -5.4757    0.6337    1.9825 H   0  0  0  0  0  0  0  0  0  0  0  0
   -3.9540   -0.1048    2.6011 H   0  0  0  0  0  0  0  0  0  0  0  0
  1  2  1  0
  2  3  2  0
  3  4  1  0
  4  5  2  0
  5  6  1  0
  6  7  2  3
  7  8  1  0
  8  9  2  0
  9 10  1  0
 10 11  2  0
 11 12  1  0
 12 13  1  0
 11 14  1  0
 14 15  2  0
  6 16  1  0
 16 17  2  0
 17 18  1  0
 18 19  1  0
 19 20  1  0
 20 21  1  0
 21 22  1  0
 21 23  1  0
 17 24  1  0
 24 25  2  0
 25  1  1  0
 25  5  1  0
 15  8  1  0
  1 26  1  0
  2 27  1  0
  3 28  1  0
  9 29  1  0
 10 30  1  0
 13 31  1  0
 13 32  1  0
 13 33  1  0
 14 34  1  0
 15 35  1  0
 18 36  1  0
 19 37  1  0
 19 38  1  0
 20 39  1  0
 20 40  1  0
 21 41  1  0
 22 42  1  0
 22 43  1  0
 22 44  1  0
 23 45  1  0
 23 46  1  0
 23 47  1  0
M  CHG  1  21   1
M  END
>  <ScrubInfo>  (7) 
{"isomerGroup": 0, "isomerId": 6, "confId": 0, "nr_conformers:": 1, "nr_isomers:": 9}

$$$$
_i7
     RDKit          3D

 47 49  0  0  0  0  0  0  0  0999 V2000
   -0.7582   -2.2413    1.7024 N   0  0  0  0  0  0  0  0  0  0  0  0
   -1.4486   -1.1321    1.3145 C   0  0  0  0  0  0  0  0  0  0  0  0
   -2.6611   -0.9722    1.7308 N   0  0  0  0  0  0  0  0  0  0  0  0
   -3.4019    0.2139    1.3120 C   0  0  0  0  0  0  0  0  0  0  0  0
   -4.8032    0.1389    1.9387 C   0  0  0  0  0  0  0  0  0  0  0  0
   -5.7000    1.3090    1.5866 N   0  0  0  0  0  4  0  0  0  0  0  0
   -6.0585    1.3837    0.1303 C   0  0  0  0  0  0  0  0  0  0  0  0
   -5.2259    2.6246    2.1330 C   0  0  0  0  0  0  0  0  0  0  0  0
   -0.7269   -0.3040    0.4984 N   0  0  0  0  0  0  0  0  0  0  0  0
    0.5612   -0.4441    0.0260 C   0  0  0  0  0  0  0  0  0  0  0  0
    0.9750    0.5223   -0.7555 N   0  0  0  0  0  0  0  0  0  0  0  0
    2.2540    0.5139   -1.3218 C   0  0  0  0  0  0  0  0  0  0  0  0
    2.4666   -0.0588   -2.5762 C   0  0  0  0  0  0  0  0  0  0  0  0
    3.7359   -0.0255   -3.1593 C   0  0  0  0  0  0  0  0  0  0  0  0
    4.8032    0.5951   -2.5056 C   0  0  0  0  0  0  0  0  0  0  0  0
    5.9891    0.5549   -3.1847 O   0  0  0  0  0  0  0  0  0  0  0  0
    7.1049    1.1874   -2.5705 C   0  0  0  0  0  0  0  0  0  0  0  0
    4.5879    1.1900   -1.2623 C   0  0  0  0  0  0  0  0  0  0  0  0
    3.3154    1.1551   -0.6790 C   0  0  0  0  0  0  0  0  0  0  0  0
    1.2799   -1.6785    0.4796 C   0  0  0  0  0  0  0  0  0  0  0  0
    2.5520   -1.9279    0.0908 N   0  0  0  0  0  0  0  0  0  0  0  0
    3.0824   -3.0748    0.5658 C   0  0  0  0  0  0  0  0  0  0  0  0
    2.3740   -3.9301    1.3943 C   0  0  0  0  0  0  0  0  0  0  0  0
    1.1000   -3.6798    1.7883 N   0  0  0  0  0  0  0  0  0  0  0  0
    0.5505   -2.5346    1.3197 C   0  0  0  0  0  0  0  0  0  0  0  0
   -1.1879   -2.9264    2.3060 H   0  0  0  0  0  0  0  0  0  0  0  0
   -3.4817    0.2404    0.2200 H   0  0  0  0  0  0  0  0  0  0  0  0
   -2.8868    1.1179    1.6541 H   0  0  0  0  0  0  0  0  0  0  0  0
   -5.3281   -0.7677    1.6151 H   0  0  0  0  0  0  0  0  0  0  0  0
   -4.7408    0.1089    3.0329 H   0  0  0  0  0  0  0  0  0  0  0  0
   -6.5828    1.1101    2.0766 H   0  0  0  0  0  0  0  0  0  0  0  0
   -6.4185    0.4010   -0.1846 H   0  0  0  0  0  0  0  0  0  0  0  0
   -6.8545    2.1249    0.0192 H   0  0  0  0  0  0  0  0  0  0  0  0
   -5.1747    1.6822   -0.4384 H   0  0  0  0  0  0  0  0  0  0  0  0
   -6.0307    3.3524    1.9991 H   0  0  0  0  0  0  0  0  0  0  0  0
   -4.3329    2.9357    1.5857 H   0  0  0  0  0  0  0  0  0  0  0  0
   -5.0131    2.4967    3.1974 H   0  0  0  0  0  0  0  0  0  0  0  0
   -1.1547    0.5427    0.1567 H   0  0  0  0  0  0  0  0  0  0  0  0
    1.6457   -0.5369   -3.1007 H   0  0  0  0  0  0  0  0  0  0  0  0
    3.8937   -0.4840   -4.1322 H   0  0  0  0  0  0  0  0  0  0  0  0
    6.9283    2.2603   -2.4406 H   0  0  0  0  0  0  0  0  0  0  0  0
    7.9646    1.0699   -3.2372 H   0  0  0  0  0  0  0  0  0  0  0  0
    7.3544    0.7090   -1.6177 H   0  0  0  0  0  0  0  0  0  0  0  0
    5.3832    1.6903   -0.7209 H   0  0  0  0  0  0  0  0  0  0  0  0
    3.1533    1.6272    0.2852 H   0  0  0  0  0  0  0  0  0  0  0  0
    4.1008   -3.2914    0.2604 H   0  0  0  0  0  0  0  0  0  0  0  0
    2.8155   -4.8486    1.7674 H   0  0  0  0  0  0  0  0  0  0  0  0
  1  2  1  0
  2  3  2  3
  3  4  1  0
  4  5  1  0
  5  6  1  0
  6  7  1  0
  6  8  1  0
  2  9  1  0
  9 10  1  0
 10 11  2  3
 11 12  1  0
 12 13  2  0
 13 14  1  0
 14 15  2  0
 15 16  1  0
 16 17  1  0
 15 18  1  0
 18 19  2  0
 10 20  1  0
 20 21  2  0
 21 22  1  0
 22 23  2  0
 23 24  1  0
 24 25  2  0
 25  1  1  0
 19 12  1  0
 25 20  1  0
  1 26  1  0
  4 27  1  0
  4 28  1  0
  5 29  1  0
  5 30  1  0
  6 31  1  0
  7 32  1  0
  7 33  1  0
  7 34  1  0
  8 35  1  0
  8 36  1  0
  8 37  1  0
  9 38  1  0
 13 39  1  0
 14 40  1  0
 17 41  1  0
 17 42  1  0
 17 43  1  0
 18 44  1  0
 19 45  1  0
 22 46  1  0
 23 47  1  0
M  CHG  1   6   1
M  END
>  <ScrubInfo>  (8) 
{"isomerGroup": 0, "isomerId": 7, "confId": 0, "nr_conformers:": 1, "nr_isomers:": 9}

$$$$
_i8
     RDKit          3D

 47 49  0  0  0  0  0  0  0  0999 V2000
   -1.7968   -4.6370   -0.3370 N   0  0  0  0  0  0  0  0  0  0  0  0
   -1.0510   -5.7523   -0.0689 C   0  0  0  0  0  0  0  0  0  0  0  0
    0.2663   -5.6633    0.1723 C   0  0  0  0  0  0  0  0  0  0  0  0
    0.9701   -4.4772    0.1713 N   0  0  0  0  0  0  0  0  0  0  0  0
    0.3029   -3.3835   -0.0863 C   0  0  0  0  0  0  0  0  0  0  0  0
    0.9881   -2.0347   -0.1111 C   0  0  0  0  0  0  0  0  0  0  0  0
    2.2616   -1.9668    0.1274 N   0  0  0  0  0  0  0  0  0  0  0  0
    2.8893   -0.7173    0.1010 C   0  0  0  0  0  0  0  0  0  0  0  0
    3.2944   -0.1484   -1.1073 C   0  0  0  0  0  0  0  0  0  0  0  0
    3.8798    1.1192   -1.1245 C   0  0  0  0  0  0  0  0  0  0  0  0
    4.0923    1.8194    0.0657 C   0  0  0  0  0  0  0  0  0  0  0  0
    4.6630    3.0516   -0.0879 O   0  0  0  0  0  0  0  0  0  0  0  0
    5.1990    3.6559    1.0845 C   0  0  0  0  0  0  0  0  0  0  0  0
    3.7102    1.2423    1.2769 C   0  0  0  0  0  0  0  0  0  0  0  0
    3.1150   -0.0241    1.2913 C   0  0  0  0  0  0  0  0  0  0  0  0
    0.1242   -1.0102   -0.3967 N   0  0  0  0  0  0  0  0  0  0  0  0
   -1.2100   -1.1026   -0.6596 C   0  0  0  0  0  0  0  0  0  0  0  0
   -2.0038   -0.1341   -0.9493 N   0  0  0  0  0  0  0  0  0  0  0  0
   -1.5165    1.2343   -1.0355 C   0  0  0  0  0  0  0  0  0  0  0  0
   -2.6131    2.1387   -1.6292 C   0  0  0  0  0  0  0  0  0  0  0  0
   -3.9059    2.1873   -0.8294 N   0  0  0  0  0  4  0  0  0  0  0  0
   -3.7473    2.7277    0.5581 C   0  0  0  0  0  0  0  0  0  0  0  0
   -4.6845    0.8958   -0.8411 C   0  0  0  0  0  0  0  0  0  0  0  0
   -1.8648   -2.3061   -0.6320 N   0  0  0  0  0  0  0  0  0  0  0  0
   -1.2068   -3.3982   -0.3743 C   0  0  0  0  0  0  0  0  0  0  0  0
   -2.7841   -4.7318   -0.5341 H   0  0  0  0  0  0  0  0  0  0  0  0
   -1.5847   -6.6971   -0.0650 H   0  0  0  0  0  0  0  0  0  0  0  0
    0.8482   -6.5578    0.3838 H   0  0  0  0  0  0  0  0  0  0  0  0
    3.1674   -0.6978   -2.0365 H   0  0  0  0  0  0  0  0  0  0  0  0
    4.1983    1.5544   -2.0693 H   0  0  0  0  0  0  0  0  0  0  0  0
    5.9107    2.9919    1.5868 H   0  0  0  0  0  0  0  0  0  0  0  0
    5.7405    4.5561    0.7785 H   0  0  0  0  0  0  0  0  0  0  0  0
    4.3982    3.9636    1.7645 H   0  0  0  0  0  0  0  0  0  0  0  0
    3.8666    1.7458    2.2254 H   0  0  0  0  0  0  0  0  0  0  0  0
    2.8362   -0.4794    2.2388 H   0  0  0  0  0  0  0  0  0  0  0  0
    0.5463   -0.0966   -0.4236 H   0  0  0  0  0  0  0  0  0  0  0  0
   -0.6432    1.2934   -1.6960 H   0  0  0  0  0  0  0  0  0  0  0  0
   -1.2189    1.5989   -0.0465 H   0  0  0  0  0  0  0  0  0  0  0  0
   -2.8871    1.8089   -2.6379 H   0  0  0  0  0  0  0  0  0  0  0  0
   -2.2547    3.1719   -1.6972 H   0  0  0  0  0  0  0  0  0  0  0  0
   -4.4985    2.8570   -1.3345 H   0  0  0  0  0  0  0  0  0  0  0  0
   -3.1920    2.0064    1.1626 H   0  0  0  0  0  0  0  0  0  0  0  0
   -4.7462    2.8876    0.9729 H   0  0  0  0  0  0  0  0  0  0  0  0
   -3.2147    3.6801    0.4944 H   0  0  0  0  0  0  0  0  0  0  0  0
   -4.6538    0.4758   -1.8494 H   0  0  0  0  0  0  0  0  0  0  0  0
   -4.2727    0.2118   -0.0965 H   0  0  0  0  0  0  0  0  0  0  0  0
   -5.7179    1.1405   -0.5784 H   0  0  0  0  0  0  0  0  0  0  0  0
  1  2  1  0
  2  3  2  0
  3  4  1  0
  4  5  2  0
  5  6  1  0
  6  7  2  3
  7  8  1  0
  8  9  2  0
  9 10  1  0
 10 11  2  0
 11 12  1  0
 12 13  1  0
 11 14  1  0
 14 15  2  0
  6 16  1  0
 16 17  1  0
 17 18  2  3
 18 19  1  0
 19 20  1  0
 20 21  1  0
 21 22  1  0
 21 23  1  0
 17 24  1  0
 24 25  2  0
 25  1  1  0
 25  5  1  0
 15  8  1  0
  1 26  1  0
  2 27  1  0
  3 28  1  0
  9 29  1  0
 10 30  1  0
 13 31  1  0
 13 32  1  0
 13 33  1  0
 14 34  1  0
 15 35  1  0
 16 36  1  0
 19 37  1  0
 19 38  1  0
 20 39  1  0
 20 40  1  0
 21 41  1  0
 22 42  1  0
 22 43  1  0
 22 44  1  0
 23 45  1  0
 23 46  1  0
 23 47  1  0
M  CHG  1  21   1
M  END
>  <ScrubInfo>  (9) 
{"isomerGroup": 0, "isomerId": 8, "confId": 0, "nr_conformers:": 1, "nr_isomers:": 9}

$$$$
