REMARK SMILES COc1ccc(Nc2nc(NCC[NH+](C)C)nc3nccnc23)cc1
REMARK SMILES IDX 10 1 9 2 17 3 8 4 18 5 23 6 19 7 22 8 20 9 21 10 11 11 12 13
REMARK SMILES IDX 13 14 14 15 15 16 16 17 7 19 6 21 5 22 24 23 4 24 25 25 3 26
REMARK SMILES IDX 2 27 1 28
REMARK H PARENT 11 12 14 18 7 20
ROOT
ATOM      1  C   UNL     1      -1.594   2.180   0.454  1.00  0.00     0.227 A 
ATOM      2  N   UNL     1      -0.455   1.604   0.090  1.00  0.00    -0.193 NA
ATOM      3  N   UNL     1      -1.837   3.476   0.339  1.00  0.00    -0.191 NA
ATOM      4  C   UNL     1       0.514   2.390  -0.423  1.00  0.00     0.164 A 
ATOM      5  C   UNL     1      -0.881   4.250  -0.170  1.00  0.00     0.185 A 
ATOM      6  C   UNL     1       0.363   3.761  -0.593  1.00  0.00     0.150 A 
ATOM      7  N   UNL     1      -1.148   5.554  -0.290  1.00  0.00    -0.233 NA
ATOM      8  N   UNL     1       1.327   4.559  -1.144  1.00  0.00    -0.247 NA
ATOM      9  C   UNL     1      -0.192   6.356  -0.816  1.00  0.00     0.133 A 
ATOM     10  C   UNL     1       1.025   5.869  -1.237  1.00  0.00     0.132 A 
ENDROOT
BRANCH   1  11
ATOM     11  N   UNL     1      -2.610   1.399   0.990  1.00  0.00    -0.348 N 
ATOM     12  H   UNL     1      -3.432   2.004   0.988  1.00  0.00     0.163 HD
BRANCH  11  13
ATOM     13  C   UNL     1      -2.800   0.094   0.366  1.00  0.00     0.177 C 
BRANCH  13  14
ATOM     14  C   UNL     1      -1.639  -0.890   0.655  1.00  0.00     0.283 C 
BRANCH  14  15
ATOM     15  N   UNL     1      -2.037  -2.358   0.636  1.00  0.00    -0.338 N 
ATOM     16  C   UNL     1      -2.587  -2.819  -0.680  1.00  0.00     0.332 C 
ATOM     17  C   UNL     1      -2.877  -2.773   1.807  1.00  0.00     0.332 C 
ATOM     18  H   UNL     1      -1.141  -2.855   0.749  1.00  0.00     0.347 HD
ENDBRANCH  14  15
ENDBRANCH  13  14
ENDBRANCH  11  13
ENDBRANCH   1  11
BRANCH   4  19
ATOM     19  N   UNL     1       1.757   1.798  -0.783  1.00  0.00    -0.338 N 
ATOM     20  H   UNL     1       2.161   2.277  -1.585  1.00  0.00     0.168 HD
BRANCH  19  21
ATOM     21  C   UNL     1       2.122   0.450  -0.634  1.00  0.00     0.040 A 
ATOM     22  C   UNL     1       1.919  -0.231   0.572  1.00  0.00     0.030 A 
ATOM     23  C   UNL     1       2.636  -0.266  -1.721  1.00  0.00     0.030 A 
ATOM     24  C   UNL     1       2.207  -1.594   0.684  1.00  0.00     0.048 A 
ATOM     25  C   UNL     1       2.922  -1.634  -1.613  1.00  0.00     0.048 A 
ATOM     26  C   UNL     1       2.704  -2.302  -0.409  1.00  0.00     0.119 A 
BRANCH  26  27
ATOM     27  O   UNL     1       2.909  -3.635  -0.184  1.00  0.00    -0.497 OA
ATOM     28  C   UNL     1       3.748  -4.309  -1.118  1.00  0.00     0.278 C 
ENDBRANCH  26  27
ENDBRANCH  19  21
ENDBRANCH   4  19
TORSDOF 7
