REMARK SMILES CCCCNc1nc(Nc2cc(C)ccc2O)c2cnn(C)c2n1
REMARK SMILES IDX 6 1 7 2 8 3 18 4 19 5 20 6 21 7 22 8 23 9 24 10 5 11 4 13
REMARK SMILES IDX 3 14 2 15 1 16 9 17 10 19 11 20 16 21 12 22 15 23 14 24
REMARK SMILES IDX 13 25 17 26
REMARK H PARENT 5 12 9 18 17 27
ROOT
ATOM      1  C   UNL     1       1.800  -1.365   0.716  1.00  0.00     0.226 A 
ATOM      2  N   UNL     1       0.760  -0.840   1.390  1.00  0.00    -0.195 NA
ATOM      3  C   UNL     1      -0.500  -0.929   0.889  1.00  0.00     0.147 A 
ATOM      4  C   UNL     1      -0.672  -1.646  -0.297  1.00  0.00     0.082 A 
ATOM      5  C   UNL     1      -1.723  -2.097  -1.124  1.00  0.00     0.149 A 
ATOM      6  N   UNL     1      -1.293  -2.780  -2.192  1.00  0.00    -0.179 NA
ATOM      7  N   UNL     1       0.050  -2.798  -2.022  1.00  0.00    -0.250 N 
ATOM      8  C   UNL     1       0.876  -3.488  -2.980  1.00  0.00     0.176 C 
ATOM      9  C   UNL     1       0.468  -2.144  -0.896  1.00  0.00     0.165 A 
ATOM     10  N   UNL     1       1.726  -2.019  -0.450  1.00  0.00    -0.193 NA
ENDROOT
BRANCH   1  11
ATOM     11  N   UNL     1       3.031  -1.175   1.325  1.00  0.00    -0.354 N 
ATOM     12  H   UNL     1       2.898  -0.472   2.043  1.00  0.00     0.163 HD
BRANCH  11  13
ATOM     13  C   UNL     1       4.183  -1.002   0.460  1.00  0.00     0.116 C 
BRANCH  13  14
ATOM     14  C   UNL     1       4.173   0.329  -0.299  1.00  0.00     0.021 C 
BRANCH  14  15
ATOM     15  C   UNL     1       4.278   1.546   0.624  1.00  0.00    -0.002 C 
ATOM     16  C   UNL     1       4.353   2.840  -0.172  1.00  0.00     0.004 C 
ENDBRANCH  14  15
ENDBRANCH  13  14
ENDBRANCH  11  13
ENDBRANCH   1  11
BRANCH   3  17
ATOM     17  N   UNL     1      -1.520  -0.362   1.652  1.00  0.00    -0.336 N 
ATOM     18  H   UNL     1      -1.199  -0.144   2.592  1.00  0.00     0.168 HD
BRANCH  17  19
ATOM     19  C   UNL     1      -2.643   0.414   1.307  1.00  0.00     0.082 A 
ATOM     20  C   UNL     1      -2.922   0.847   0.006  1.00  0.00     0.033 A 
ATOM     21  C   UNL     1      -3.572   0.730   2.315  1.00  0.00     0.139 A 
ATOM     22  C   UNL     1      -4.097   1.558  -0.291  1.00  0.00    -0.049 A 
ATOM     23  C   UNL     1      -4.736   1.447   2.043  1.00  0.00     0.048 A 
ATOM     24  C   UNL     1      -4.995   1.862   0.738  1.00  0.00     0.007 A 
ATOM     25  C   UNL     1      -4.351   2.043  -1.689  1.00  0.00     0.044 C 
BRANCH  21  26
ATOM     26  O   UNL     1      -3.296   0.326   3.598  1.00  0.00    -0.506 OA
ATOM     27  H   UNL     1      -4.058   0.542   4.159  1.00  0.00     0.293 HD
ENDBRANCH  21  26
ENDBRANCH  17  19
ENDBRANCH   3  17
TORSDOF 7
