_i0
     RDKit          3D

 46 48  0  0  0  0  0  0  0  0999 V2000
    4.3530    2.8398   -0.1717 C   0  0  0  0  0  0  0  0  0  0  0  0
    4.2784    1.5457    0.6242 C   0  0  0  0  0  0  0  0  0  0  0  0
    4.1732    0.3290   -0.2986 C   0  0  0  0  0  0  0  0  0  0  0  0
    4.1834   -1.0024    0.4597 C   0  0  0  0  0  0  0  0  0  0  0  0
    3.0307   -1.1754    1.3251 N   0  0  0  0  0  0  0  0  0  0  0  0
    1.8002   -1.3645    0.7163 C   0  0  0  0  0  0  0  0  0  0  0  0
    0.7604   -0.8399    1.3901 N   0  0  0  0  0  0  0  0  0  0  0  0
   -0.4997   -0.9287    0.8894 C   0  0  0  0  0  0  0  0  0  0  0  0
   -1.5205   -0.3621    1.6519 N   0  0  0  0  0  0  0  0  0  0  0  0
   -2.6434    0.4143    1.3070 C   0  0  0  0  0  0  0  0  0  0  0  0
   -2.9223    0.8468    0.0063 C   0  0  0  0  0  0  0  0  0  0  0  0
   -4.0970    1.5585   -0.2909 C   0  0  0  0  0  0  0  0  0  0  0  0
   -4.3508    2.0429   -1.6887 C   0  0  0  0  0  0  0  0  0  0  0  0
   -4.9951    1.8617    0.7383 C   0  0  0  0  0  0  0  0  0  0  0  0
   -4.7360    1.4469    2.0435 C   0  0  0  0  0  0  0  0  0  0  0  0
   -3.5723    0.7297    2.3148 C   0  0  0  0  0  0  0  0  0  0  0  0
   -3.2956    0.3257    3.5975 O   0  0  0  0  0  0  0  0  0  0  0  0
   -0.6721   -1.6463   -0.2971 C   0  0  0  0  0  0  0  0  0  0  0  0
   -1.7229   -2.0973   -1.1237 C   0  0  0  0  0  0  0  0  0  0  0  0
   -1.2926   -2.7795   -2.1921 N   0  0  0  0  0  0  0  0  0  0  0  0
    0.0498   -2.7981   -2.0224 N   0  0  0  0  0  0  0  0  0  0  0  0
    0.8762   -3.4880   -2.9803 C   0  0  0  0  0  0  0  0  0  0  0  0
    0.4681   -2.1445   -0.8960 C   0  0  0  0  0  0  0  0  0  0  0  0
    1.7262   -2.0188   -0.4502 N   0  0  0  0  0  0  0  0  0  0  0  0
    4.4266    3.6969    0.5049 H   0  0  0  0  0  0  0  0  0  0  0  0
    5.2302    2.8480   -0.8266 H   0  0  0  0  0  0  0  0  0  0  0  0
    3.4599    2.9711   -0.7908 H   0  0  0  0  0  0  0  0  0  0  0  0
    3.4114    1.5939    1.2919 H   0  0  0  0  0  0  0  0  0  0  0  0
    5.1712    1.4595    1.2542 H   0  0  0  0  0  0  0  0  0  0  0  0
    5.0257    0.3331   -0.9894 H   0  0  0  0  0  0  0  0  0  0  0  0
    3.2705    0.4133   -0.9153 H   0  0  0  0  0  0  0  0  0  0  0  0
    4.2679   -1.8352   -0.2494 H   0  0  0  0  0  0  0  0  0  0  0  0
    5.0838   -1.0508    1.0836 H   0  0  0  0  0  0  0  0  0  0  0  0
    2.8978   -0.4723    2.0427 H   0  0  0  0  0  0  0  0  0  0  0  0
   -1.1989   -0.1445    2.5917 H   0  0  0  0  0  0  0  0  0  0  0  0
   -2.2117    0.6649   -0.7948 H   0  0  0  0  0  0  0  0  0  0  0  0
   -5.4247    2.1350   -1.8823 H   0  0  0  0  0  0  0  0  0  0  0  0
   -3.9481    1.3383   -2.4240 H   0  0  0  0  0  0  0  0  0  0  0  0
   -3.8799    3.0195   -1.8372 H   0  0  0  0  0  0  0  0  0  0  0  0
   -5.8996    2.4284    0.5280 H   0  0  0  0  0  0  0  0  0  0  0  0
   -5.4426    1.6943    2.8291 H   0  0  0  0  0  0  0  0  0  0  0  0
   -4.0575    0.5424    4.1592 H   0  0  0  0  0  0  0  0  0  0  0  0
   -2.7877   -1.9555   -0.9891 H   0  0  0  0  0  0  0  0  0  0  0  0
    0.6631   -3.0848   -3.9737 H   0  0  0  0  0  0  0  0  0  0  0  0
    0.6321   -4.5525   -2.9396 H   0  0  0  0  0  0  0  0  0  0  0  0
    1.9315   -3.3384   -2.7416 H   0  0  0  0  0  0  0  0  0  0  0  0
  1  2  1  0
  2  3  1  0
  3  4  1  0
  4  5  1  0
  5  6  1  0
  6  7  2  0
  7  8  1  0
  8  9  1  0
  9 10  1  0
 10 11  2  0
 11 12  1  0
 12 13  1  0
 12 14  2  0
 14 15  1  0
 15 16  2  0
 16 17  1  0
  8 18  2  0
 18 19  1  0
 19 20  2  0
 20 21  1  0
 21 22  1  0
 21 23  1  0
 23 24  2  0
 24  6  1  0
 16 10  1  0
 23 18  1  0
  1 25  1  0
  1 26  1  0
  1 27  1  0
  2 28  1  0
  2 29  1  0
  3 30  1  0
  3 31  1  0
  4 32  1  0
  4 33  1  0
  5 34  1  0
  9 35  1  0
 11 36  1  0
 13 37  1  0
 13 38  1  0
 13 39  1  0
 14 40  1  0
 15 41  1  0
 17 42  1  0
 19 43  1  0
 22 44  1  0
 22 45  1  0
 22 46  1  0
M  END
>  <ScrubInfo>  (1) 
{"isomerGroup": 0, "isomerId": 0, "confId": 0, "nr_conformers:": 1, "nr_isomers:": 9}

$$$$
_i1
     RDKit          3D

 46 48  0  0  0  0  0  0  0  0999 V2000
    0.2277   -0.6987   -0.4304 N   0  0  0  0  0  0  0  0  0  0  0  0
   -0.6600   -1.3413    0.4128 C   0  0  0  0  0  0  0  0  0  0  0  0
   -1.8350   -0.7774    0.8865 N   0  0  0  0  0  0  0  0  0  0  0  0
   -2.4516    0.4710    0.6428 C   0  0  0  0  0  0  0  0  0  0  0  0
   -3.8614    0.5025    0.6926 C   0  0  0  0  0  0  0  0  0  0  0  0
   -4.5954    1.6708    0.4322 C   0  0  0  0  0  0  0  0  0  0  0  0
   -6.0929    1.6631    0.5252 C   0  0  0  0  0  0  0  0  0  0  0  0
   -3.9098    2.8482    0.1344 C   0  0  0  0  0  0  0  0  0  0  0  0
   -2.5179    2.8497    0.0761 C   0  0  0  0  0  0  0  0  0  0  0  0
   -1.8012    1.6736    0.3260 C   0  0  0  0  0  0  0  0  0  0  0  0
   -0.4329    1.7423    0.2916 O   0  0  0  0  0  0  0  0  0  0  0  0
   -0.3103   -2.5946    0.7336 C   0  0  0  0  0  0  0  0  0  0  0  0
   -0.8256   -3.6913    1.5617 C   0  0  0  0  0  0  0  0  0  0  0  0
   -0.0641   -4.7553    1.5446 N   0  0  0  0  0  0  0  0  0  0  0  0
    0.9832   -4.4451    0.6623 N   0  0  0  0  0  0  0  0  0  0  0  0
    2.1630   -5.2758    0.6529 C   0  0  0  0  0  0  0  0  0  0  0  0
    0.9415   -3.1474    0.1761 C   0  0  0  0  0  0  0  0  0  0  0  0
    1.7719   -2.5134   -0.5759 N   0  0  0  0  0  0  0  0  0  0  0  0
    1.4227   -1.2141   -0.8781 C   0  0  0  0  0  0  0  0  0  0  0  0
    2.3158   -0.6108   -1.5768 N   0  0  0  0  0  0  0  0  0  0  0  0
    2.1182    0.7610   -2.0211 C   0  0  0  0  0  0  0  0  0  0  0  0
    2.7382    1.7389   -1.0238 C   0  0  0  0  0  0  0  0  0  0  0  0
    4.2632    1.6253   -0.9630 C   0  0  0  0  0  0  0  0  0  0  0  0
    4.8564    2.6370    0.0052 C   0  0  0  0  0  0  0  0  0  0  0  0
    0.0730    0.2995   -0.4947 H   0  0  0  0  0  0  0  0  0  0  0  0
   -2.4496   -1.4289    1.3606 H   0  0  0  0  0  0  0  0  0  0  0  0
   -4.4092   -0.4089    0.9264 H   0  0  0  0  0  0  0  0  0  0  0  0
   -6.4980    0.6963    0.2085 H   0  0  0  0  0  0  0  0  0  0  0  0
   -6.5302    2.4269   -0.1265 H   0  0  0  0  0  0  0  0  0  0  0  0
   -6.4044    1.8583    1.5560 H   0  0  0  0  0  0  0  0  0  0  0  0
   -4.4543    3.7701   -0.0578 H   0  0  0  0  0  0  0  0  0  0  0  0
   -2.0063    3.7762   -0.1685 H   0  0  0  0  0  0  0  0  0  0  0  0
   -0.1722    2.6743    0.3973 H   0  0  0  0  0  0  0  0  0  0  0  0
   -1.7514   -3.5807    2.1398 H   0  0  0  0  0  0  0  0  0  0  0  0
    2.6829   -5.2053   -0.3079 H   0  0  0  0  0  0  0  0  0  0  0  0
    2.8519   -4.9682    1.4458 H   0  0  0  0  0  0  0  0  0  0  0  0
    1.8985   -6.3262    0.8122 H   0  0  0  0  0  0  0  0  0  0  0  0
    1.0618    1.0014   -2.1842 H   0  0  0  0  0  0  0  0  0  0  0  0
    2.5976    0.8786   -3.0000 H   0  0  0  0  0  0  0  0  0  0  0  0
    2.3212    1.5712   -0.0240 H   0  0  0  0  0  0  0  0  0  0  0  0
    2.4653    2.7590   -1.3201 H   0  0  0  0  0  0  0  0  0  0  0  0
    4.6888    1.7900   -1.9597 H   0  0  0  0  0  0  0  0  0  0  0  0
    4.5560    0.6177   -0.6470 H   0  0  0  0  0  0  0  0  0  0  0  0
    5.9462    2.5402    0.0338 H   0  0  0  0  0  0  0  0  0  0  0  0
    4.4745    2.4800    1.0190 H   0  0  0  0  0  0  0  0  0  0  0  0
    4.6142    3.6603   -0.2991 H   0  0  0  0  0  0  0  0  0  0  0  0
  1  2  1  0
  2  3  1  0
  3  4  1  0
  4  5  2  0
  5  6  1  0
  6  7  1  0
  6  8  2  0
  8  9  1  0
  9 10  2  0
 10 11  1  0
  2 12  2  0
 12 13  1  0
 13 14  2  0
 14 15  1  0
 15 16  1  0
 15 17  1  0
 17 18  2  0
 18 19  1  0
 19 20  2  3
 20 21  1  0
 21 22  1  0
 22 23  1  0
 23 24  1  0
 19  1  1  0
 10  4  1  0
 17 12  1  0
  1 25  1  0
  3 26  1  0
  5 27  1  0
  7 28  1  0
  7 29  1  0
  7 30  1  0
  8 31  1  0
  9 32  1  0
 11 33  1  0
 13 34  1  0
 16 35  1  0
 16 36  1  0
 16 37  1  0
 21 38  1  0
 21 39  1  0
 22 40  1  0
 22 41  1  0
 23 42  1  0
 23 43  1  0
 24 44  1  0
 24 45  1  0
 24 46  1  0
M  END
>  <ScrubInfo>  (2) 
{"isomerGroup": 0, "isomerId": 1, "confId": 0, "nr_conformers:": 1, "nr_isomers:": 9}

$$$$
_i2
     RDKit          3D

 46 48  0  0  0  0  0  0  0  0999 V2000
    0.8522    0.2878    0.9081 N   0  0  0  0  0  0  0  0  0  0  0  0
    1.7196   -0.7600    1.0768 C   0  0  0  0  0  0  0  0  0  0  0  0
    3.0000   -0.4471    1.4367 N   0  0  0  0  0  0  0  0  0  0  0  0
    3.7785    0.6277    0.8385 C   0  0  0  0  0  0  0  0  0  0  0  0
    4.1155    0.3082   -0.6187 C   0  0  0  0  0  0  0  0  0  0  0  0
    4.8817    1.4298   -1.3226 C   0  0  0  0  0  0  0  0  0  0  0  0
    6.2703    1.6689   -0.7504 C   0  0  0  0  0  0  0  0  0  0  0  0
    1.3872   -2.0177    0.9236 N   0  0  0  0  0  0  0  0  0  0  0  0
    0.0808   -2.1470    0.5540 C   0  0  0  0  0  0  0  0  0  0  0  0
   -0.8635   -1.1511    0.3506 C   0  0  0  0  0  0  0  0  0  0  0  0
   -2.0340   -1.8493    0.0059 C   0  0  0  0  0  0  0  0  0  0  0  0
   -1.8595   -3.1774   -0.0224 N   0  0  0  0  0  0  0  0  0  0  0  0
   -0.5582   -3.3306    0.3134 N   0  0  0  0  0  0  0  0  0  0  0  0
   -0.0021   -4.6574    0.3950 C   0  0  0  0  0  0  0  0  0  0  0  0
   -0.4736    0.2324    0.5465 C   0  0  0  0  0  0  0  0  0  0  0  0
   -1.1915    1.3091    0.4463 N   0  0  0  0  0  0  0  0  0  0  0  0
   -2.5262    1.2677    0.0252 C   0  0  0  0  0  0  0  0  0  0  0  0
   -3.5463    1.3386    0.9798 C   0  0  0  0  0  0  0  0  0  0  0  0
   -4.8951    1.3246    0.5968 C   0  0  0  0  0  0  0  0  0  0  0  0
   -5.9763    1.4215    1.6320 C   0  0  0  0  0  0  0  0  0  0  0  0
   -5.2166    1.2803   -0.7656 C   0  0  0  0  0  0  0  0  0  0  0  0
   -4.2093    1.2305   -1.7317 C   0  0  0  0  0  0  0  0  0  0  0  0
   -2.8729    1.2284   -1.3344 C   0  0  0  0  0  0  0  0  0  0  0  0
   -1.8782    1.1716   -2.2751 O   0  0  0  0  0  0  0  0  0  0  0  0
    1.1664    1.2090    1.1583 H   0  0  0  0  0  0  0  0  0  0  0  0
    3.5398   -1.3066    1.5151 H   0  0  0  0  0  0  0  0  0  0  0  0
    3.2482    1.5829    0.9137 H   0  0  0  0  0  0  0  0  0  0  0  0
    4.6986    0.7333    1.4225 H   0  0  0  0  0  0  0  0  0  0  0  0
    3.1887    0.1272   -1.1775 H   0  0  0  0  0  0  0  0  0  0  0  0
    4.6924   -0.6238   -0.6705 H   0  0  0  0  0  0  0  0  0  0  0  0
    4.9828    1.1685   -2.3828 H   0  0  0  0  0  0  0  0  0  0  0  0
    4.3038    2.3603   -1.2797 H   0  0  0  0  0  0  0  0  0  0  0  0
    6.2223    2.0498    0.2739 H   0  0  0  0  0  0  0  0  0  0  0  0
    6.8024    2.4109   -1.3544 H   0  0  0  0  0  0  0  0  0  0  0  0
    6.8597    0.7466   -0.7504 H   0  0  0  0  0  0  0  0  0  0  0  0
   -3.0176   -1.4656   -0.2244 H   0  0  0  0  0  0  0  0  0  0  0  0
    1.0781   -4.6044    0.5475 H   0  0  0  0  0  0  0  0  0  0  0  0
   -0.4727   -5.1742    1.2350 H   0  0  0  0  0  0  0  0  0  0  0  0
   -0.2142   -5.1798   -0.5415 H   0  0  0  0  0  0  0  0  0  0  0  0
   -3.2766    1.4029    2.0313 H   0  0  0  0  0  0  0  0  0  0  0  0
   -6.2073    2.4718    1.8344 H   0  0  0  0  0  0  0  0  0  0  0  0
   -6.8875    0.9173    1.2936 H   0  0  0  0  0  0  0  0  0  0  0  0
   -5.6668    0.9400    2.5656 H   0  0  0  0  0  0  0  0  0  0  0  0
   -6.2575    1.2880   -1.0825 H   0  0  0  0  0  0  0  0  0  0  0  0
   -4.4843    1.1958   -2.7811 H   0  0  0  0  0  0  0  0  0  0  0  0
   -2.2809    1.1605   -3.1571 H   0  0  0  0  0  0  0  0  0  0  0  0
  1  2  1  0
  2  3  1  0
  3  4  1  0
  4  5  1  0
  5  6  1  0
  6  7  1  0
  2  8  2  0
  8  9  1  0
  9 10  2  0
 10 11  1  0
 11 12  2  0
 12 13  1  0
 13 14  1  0
 10 15  1  0
 15 16  2  3
 16 17  1  0
 17 18  2  0
 18 19  1  0
 19 20  1  0
 19 21  2  0
 21 22  1  0
 22 23  2  0
 23 24  1  0
 15  1  1  0
 23 17  1  0
 13  9  1  0
  1 25  1  0
  3 26  1  0
  4 27  1  0
  4 28  1  0
  5 29  1  0
  5 30  1  0
  6 31  1  0
  6 32  1  0
  7 33  1  0
  7 34  1  0
  7 35  1  0
 11 36  1  0
 14 37  1  0
 14 38  1  0
 14 39  1  0
 18 40  1  0
 20 41  1  0
 20 42  1  0
 20 43  1  0
 21 44  1  0
 22 45  1  0
 24 46  1  0
M  END
>  <ScrubInfo>  (3) 
{"isomerGroup": 0, "isomerId": 2, "confId": 0, "nr_conformers:": 1, "nr_isomers:": 9}

$$$$
_i3
     RDKit          3D

 46 48  0  0  0  0  0  0  0  0999 V2000
    1.3817    1.7591   -0.2045 N   0  0  0  0  0  0  0  0  0  0  0  0
    1.5483    0.5139   -0.7906 C   0  0  0  0  0  0  0  0  0  0  0  0
    2.6561   -0.1195   -0.9394 N   0  0  0  0  0  0  0  0  0  0  0  0
    3.8933    0.4788   -0.4597 C   0  0  0  0  0  0  0  0  0  0  0  0
    5.0527   -0.4837   -0.7226 C   0  0  0  0  0  0  0  0  0  0  0  0
    4.9437   -1.8329   -0.0047 C   0  0  0  0  0  0  0  0  0  0  0  0
    4.9379   -1.7173    1.5116 C   0  0  0  0  0  0  0  0  0  0  0  0
    0.4636   -0.1993   -1.2882 N   0  0  0  0  0  0  0  0  0  0  0  0
   -0.7316    0.3089   -1.1887 C   0  0  0  0  0  0  0  0  0  0  0  0
   -1.8490   -0.3399   -1.6516 N   0  0  0  0  0  0  0  0  0  0  0  0
   -2.6670   -1.0335   -0.7094 C   0  0  0  0  0  0  0  0  0  0  0  0
   -4.0511   -0.8091   -0.7533 C   0  0  0  0  0  0  0  0  0  0  0  0
   -4.9214   -1.4867    0.1123 C   0  0  0  0  0  0  0  0  0  0  0  0
   -6.3930   -1.1962    0.0897 C   0  0  0  0  0  0  0  0  0  0  0  0
   -4.3924   -2.3969    1.0338 C   0  0  0  0  0  0  0  0  0  0  0  0
   -3.0209   -2.6522    1.0655 C   0  0  0  0  0  0  0  0  0  0  0  0
   -2.1650   -1.9838    0.1938 C   0  0  0  0  0  0  0  0  0  0  0  0
   -0.8448   -2.3352    0.2678 O   0  0  0  0  0  0  0  0  0  0  0  0
   -0.9513    1.5938   -0.5816 C   0  0  0  0  0  0  0  0  0  0  0  0
   -2.0318    2.4415   -0.3055 C   0  0  0  0  0  0  0  0  0  0  0  0
   -1.6442    3.5769    0.2978 N   0  0  0  0  0  0  0  0  0  0  0  0
   -0.2993    3.4423    0.4125 N   0  0  0  0  0  0  0  0  0  0  0  0
    0.4586    4.4974    1.0350 C   0  0  0  0  0  0  0  0  0  0  0  0
    0.1405    2.2680   -0.1111 C   0  0  0  0  0  0  0  0  0  0  0  0
    2.2075    2.2257    0.1390 H   0  0  0  0  0  0  0  0  0  0  0  0
    3.8338    0.7119    0.6091 H   0  0  0  0  0  0  0  0  0  0  0  0
    4.0928    1.4123   -0.9998 H   0  0  0  0  0  0  0  0  0  0  0  0
    5.1219   -0.6735   -1.8012 H   0  0  0  0  0  0  0  0  0  0  0  0
    5.9898    0.0046   -0.4285 H   0  0  0  0  0  0  0  0  0  0  0  0
    4.0441   -2.3662   -0.3322 H   0  0  0  0  0  0  0  0  0  0  0  0
    5.7988   -2.4513   -0.3033 H   0  0  0  0  0  0  0  0  0  0  0  0
    4.0334   -1.2187    1.8722 H   0  0  0  0  0  0  0  0  0  0  0  0
    5.8088   -1.1576    1.8670 H   0  0  0  0  0  0  0  0  0  0  0  0
    4.9681   -2.7138    1.9639 H   0  0  0  0  0  0  0  0  0  0  0  0
   -1.5242   -1.0748   -2.2828 H   0  0  0  0  0  0  0  0  0  0  0  0
   -4.4522   -0.0915   -1.4664 H   0  0  0  0  0  0  0  0  0  0  0  0
   -6.6202   -0.3644    0.7634 H   0  0  0  0  0  0  0  0  0  0  0  0
   -6.9696   -2.0730    0.4028 H   0  0  0  0  0  0  0  0  0  0  0  0
   -6.7236   -0.9347   -0.9210 H   0  0  0  0  0  0  0  0  0  0  0  0
   -5.0454   -2.9226    1.7270 H   0  0  0  0  0  0  0  0  0  0  0  0
   -2.6182   -3.3778    1.7673 H   0  0  0  0  0  0  0  0  0  0  0  0
   -0.3011   -1.7966   -0.3397 H   0  0  0  0  0  0  0  0  0  0  0  0
   -3.0829    2.2917   -0.5140 H   0  0  0  0  0  0  0  0  0  0  0  0
    0.0839    4.6372    2.0521 H   0  0  0  0  0  0  0  0  0  0  0  0
    1.5166    4.2287    1.0647 H   0  0  0  0  0  0  0  0  0  0  0  0
    0.3241    5.4098    0.4487 H   0  0  0  0  0  0  0  0  0  0  0  0
  1  2  1  0
  2  3  2  3
  3  4  1  0
  4  5  1  0
  5  6  1  0
  6  7  1  0
  2  8  1  0
  8  9  2  0
  9 10  1  0
 10 11  1  0
 11 12  2  0
 12 13  1  0
 13 14  1  0
 13 15  2  0
 15 16  1  0
 16 17  2  0
 17 18  1  0
  9 19  1  0
 19 20  1  0
 20 21  2  0
 21 22  1  0
 22 23  1  0
 22 24  1  0
 24  1  1  0
 17 11  1  0
 24 19  2  0
  1 25  1  0
  4 26  1  0
  4 27  1  0
  5 28  1  0
  5 29  1  0
  6 30  1  0
  6 31  1  0
  7 32  1  0
  7 33  1  0
  7 34  1  0
 10 35  1  0
 12 36  1  0
 14 37  1  0
 14 38  1  0
 14 39  1  0
 15 40  1  0
 16 41  1  0
 18 42  1  0
 20 43  1  0
 23 44  1  0
 23 45  1  0
 23 46  1  0
M  END
>  <ScrubInfo>  (4) 
{"isomerGroup": 0, "isomerId": 3, "confId": 0, "nr_conformers:": 1, "nr_isomers:": 9}

$$$$
_i4
     RDKit          3D

 46 48  0  0  0  0  0  0  0  0999 V2000
   -1.8624   -3.0449   -0.1685 N   0  0  0  0  0  0  0  0  0  0  0  0
   -2.1404   -1.6831   -0.2217 C   0  0  0  0  0  0  0  0  0  0  0  0
   -1.0649   -0.9095   -0.0079 C   0  0  0  0  0  0  0  0  0  0  0  0
   -0.7085    0.5027    0.0320 C   0  0  0  0  0  0  0  0  0  0  0  0
   -1.4416    1.5638   -0.0568 N   0  0  0  0  0  0  0  0  0  0  0  0
   -2.8325    1.4547   -0.1841 C   0  0  0  0  0  0  0  0  0  0  0  0
   -3.6555    1.2980    0.9336 C   0  0  0  0  0  0  0  0  0  0  0  0
   -5.0472    1.1962    0.7841 C   0  0  0  0  0  0  0  0  0  0  0  0
   -5.9233    0.9876    1.9840 C   0  0  0  0  0  0  0  0  0  0  0  0
   -5.6049    1.2444   -0.5029 C   0  0  0  0  0  0  0  0  0  0  0  0
   -4.7919    1.4313   -1.6222 C   0  0  0  0  0  0  0  0  0  0  0  0
   -3.4202    1.5493   -1.4503 C   0  0  0  0  0  0  0  0  0  0  0  0
   -2.6300    1.7626   -2.5474 O   0  0  0  0  0  0  0  0  0  0  0  0
    0.6329    0.7318    0.1742 N   0  0  0  0  0  0  0  0  0  0  0  0
    1.5053   -0.2129    0.3486 C   0  0  0  0  0  0  0  0  0  0  0  0
    2.8306    0.0784    0.4964 N   0  0  0  0  0  0  0  0  0  0  0  0
    3.3976    1.3469    0.0898 C   0  0  0  0  0  0  0  0  0  0  0  0
    4.8718    1.4389    0.4866 C   0  0  0  0  0  0  0  0  0  0  0  0
    5.7760    0.5493   -0.3706 C   0  0  0  0  0  0  0  0  0  0  0  0
    7.2392    0.7162    0.0102 C   0  0  0  0  0  0  0  0  0  0  0  0
    1.2238   -1.5514    0.3965 N   0  0  0  0  0  0  0  0  0  0  0  0
   -0.0040   -1.9043    0.2384 C   0  0  0  0  0  0  0  0  0  0  0  0
   -0.5462   -3.1906    0.2439 N   0  0  0  0  0  0  0  0  0  0  0  0
    0.2197   -4.3255   -0.2343 C   0  0  0  0  0  0  0  0  0  0  0  0
   -2.5622   -3.5816    0.3492 H   0  0  0  0  0  0  0  0  0  0  0  0
   -3.1564   -1.3773   -0.4248 H   0  0  0  0  0  0  0  0  0  0  0  0
   -3.2038    1.2591    1.9218 H   0  0  0  0  0  0  0  0  0  0  0  0
   -5.4986    1.4764    2.8671 H   0  0  0  0  0  0  0  0  0  0  0  0
   -6.9173    1.4174    1.8217 H   0  0  0  0  0  0  0  0  0  0  0  0
   -6.0291   -0.0823    2.1876 H   0  0  0  0  0  0  0  0  0  0  0  0
   -6.6806    1.1544   -0.6393 H   0  0  0  0  0  0  0  0  0  0  0  0
   -5.2241    1.4957   -2.6159 H   0  0  0  0  0  0  0  0  0  0  0  0
   -1.7477    1.9684   -2.1736 H   0  0  0  0  0  0  0  0  0  0  0  0
    3.4114   -0.7413    0.3819 H   0  0  0  0  0  0  0  0  0  0  0  0
    3.2857    1.4814   -0.9922 H   0  0  0  0  0  0  0  0  0  0  0  0
    2.8580    2.1629    0.5848 H   0  0  0  0  0  0  0  0  0  0  0  0
    5.1944    2.4814    0.3732 H   0  0  0  0  0  0  0  0  0  0  0  0
    4.9919    1.1792    1.5458 H   0  0  0  0  0  0  0  0  0  0  0  0
    5.6503    0.8026   -1.4297 H   0  0  0  0  0  0  0  0  0  0  0  0
    5.4996   -0.5041   -0.2541 H   0  0  0  0  0  0  0  0  0  0  0  0
    7.5660    1.7514   -0.1307 H   0  0  0  0  0  0  0  0  0  0  0  0
    7.4056    0.4421    1.0568 H   0  0  0  0  0  0  0  0  0  0  0  0
    7.8686    0.0738   -0.6136 H   0  0  0  0  0  0  0  0  0  0  0  0
   -0.3356   -5.2551   -0.0720 H   0  0  0  0  0  0  0  0  0  0  0  0
    1.1686   -4.4051    0.3057 H   0  0  0  0  0  0  0  0  0  0  0  0
    0.4318   -4.2293   -1.3042 H   0  0  0  0  0  0  0  0  0  0  0  0
  1  2  1  0
  2  3  2  0
  3  4  1  0
  4  5  2  3
  5  6  1  0
  6  7  2  0
  7  8  1  0
  8  9  1  0
  8 10  2  0
 10 11  1  0
 11 12  2  0
 12 13  1  0
  4 14  1  0
 14 15  2  0
 15 16  1  0
 16 17  1  0
 17 18  1  0
 18 19  1  0
 19 20  1  0
 15 21  1  0
 21 22  2  0
 22 23  1  0
 23 24  1  0
 23  1  1  0
 22  3  1  0
 12  6  1  0
  1 25  1  0
  2 26  1  0
  7 27  1  0
  9 28  1  0
  9 29  1  0
  9 30  1  0
 10 31  1  0
 11 32  1  0
 13 33  1  0
 16 34  1  0
 17 35  1  0
 17 36  1  0
 18 37  1  0
 18 38  1  0
 19 39  1  0
 19 40  1  0
 20 41  1  0
 20 42  1  0
 20 43  1  0
 24 44  1  0
 24 45  1  0
 24 46  1  0
M  END
>  <ScrubInfo>  (5) 
{"isomerGroup": 0, "isomerId": 4, "confId": 0, "nr_conformers:": 1, "nr_isomers:": 9}

$$$$
_i5
     RDKit          3D

 46 48  0  0  0  0  0  0  0  0999 V2000
    1.1587   -2.0913   -0.8999 N   0  0  0  0  0  0  0  0  0  0  0  0
    0.7994   -0.9820   -0.1694 C   0  0  0  0  0  0  0  0  0  0  0  0
    1.8364   -0.1956    0.2446 N   0  0  0  0  0  0  0  0  0  0  0  0
    2.8056    0.3435   -0.7018 C   0  0  0  0  0  0  0  0  0  0  0  0
    3.8862    1.1462    0.0246 C   0  0  0  0  0  0  0  0  0  0  0  0
    3.3761    2.4833    0.5684 C   0  0  0  0  0  0  0  0  0  0  0  0
    4.4991    3.2860    1.2075 C   0  0  0  0  0  0  0  0  0  0  0  0
   -0.4183   -0.6487    0.1605 N   0  0  0  0  0  0  0  0  0  0  0  0
   -1.4729   -1.4532   -0.2468 C   0  0  0  0  0  0  0  0  0  0  0  0
   -2.7197   -1.2140    0.0130 N   0  0  0  0  0  0  0  0  0  0  0  0
   -3.0379   -0.0424    0.7270 C   0  0  0  0  0  0  0  0  0  0  0  0
   -2.9847    1.2217    0.1318 C   0  0  0  0  0  0  0  0  0  0  0  0
   -3.3246    2.3723    0.8610 C   0  0  0  0  0  0  0  0  0  0  0  0
   -3.2849    3.7210    0.2062 C   0  0  0  0  0  0  0  0  0  0  0  0
   -3.7582    2.2399    2.1884 C   0  0  0  0  0  0  0  0  0  0  0  0
   -3.8365    0.9810    2.7856 C   0  0  0  0  0  0  0  0  0  0  0  0
   -3.4840   -0.1425    2.0499 C   0  0  0  0  0  0  0  0  0  0  0  0
   -3.5955   -1.3742    2.6389 O   0  0  0  0  0  0  0  0  0  0  0  0
   -1.1420   -2.6413   -0.9917 C   0  0  0  0  0  0  0  0  0  0  0  0
   -1.8532   -3.7112   -1.5508 C   0  0  0  0  0  0  0  0  0  0  0  0
   -1.0435   -4.6057   -2.1418 N   0  0  0  0  0  0  0  0  0  0  0  0
    0.1986   -4.0924   -1.9553 N   0  0  0  0  0  0  0  0  0  0  0  0
    1.3370   -4.8063   -2.4740 C   0  0  0  0  0  0  0  0  0  0  0  0
    0.1664   -2.9139   -1.2807 C   0  0  0  0  0  0  0  0  0  0  0  0
    2.1365   -2.3476   -0.8964 H   0  0  0  0  0  0  0  0  0  0  0  0
    1.4369    0.5476    0.8165 H   0  0  0  0  0  0  0  0  0  0  0  0
    2.2966    0.9696   -1.4438 H   0  0  0  0  0  0  0  0  0  0  0  0
    3.2941   -0.4766   -1.2397 H   0  0  0  0  0  0  0  0  0  0  0  0
    4.7017    1.3421   -0.6827 H   0  0  0  0  0  0  0  0  0  0  0  0
    4.3081    0.5502    0.8433 H   0  0  0  0  0  0  0  0  0  0  0  0
    2.9330    3.0707   -0.2440 H   0  0  0  0  0  0  0  0  0  0  0  0
    2.5926    2.3192    1.3158 H   0  0  0  0  0  0  0  0  0  0  0  0
    4.9456    2.7385    2.0437 H   0  0  0  0  0  0  0  0  0  0  0  0
    4.1149    4.2367    1.5902 H   0  0  0  0  0  0  0  0  0  0  0  0
    5.2872    3.5065    0.4805 H   0  0  0  0  0  0  0  0  0  0  0  0
   -2.6692    1.3038   -0.9047 H   0  0  0  0  0  0  0  0  0  0  0  0
   -4.2455    3.9324   -0.2736 H   0  0  0  0  0  0  0  0  0  0  0  0
   -2.4937    3.7646   -0.5496 H   0  0  0  0  0  0  0  0  0  0  0  0
   -3.0755    4.5060    0.9405 H   0  0  0  0  0  0  0  0  0  0  0  0
   -4.0449    3.1174    2.7635 H   0  0  0  0  0  0  0  0  0  0  0  0
   -4.1791    0.8749    3.8099 H   0  0  0  0  0  0  0  0  0  0  0  0
   -3.3681   -1.9994    1.9223 H   0  0  0  0  0  0  0  0  0  0  0  0
   -2.9220   -3.8837   -1.5509 H   0  0  0  0  0  0  0  0  0  0  0  0
    2.2478   -4.2284   -2.3039 H   0  0  0  0  0  0  0  0  0  0  0  0
    1.1913   -4.9575   -3.5467 H   0  0  0  0  0  0  0  0  0  0  0  0
    1.4040   -5.7672   -1.9577 H   0  0  0  0  0  0  0  0  0  0  0  0
  1  2  1  0
  2  3  1  0
  3  4  1  0
  4  5  1  0
  5  6  1  0
  6  7  1  0
  2  8  2  0
  8  9  1  0
  9 10  2  3
 10 11  1  0
 11 12  2  0
 12 13  1  0
 13 14  1  0
 13 15  2  0
 15 16  1  0
 16 17  2  0
 17 18  1  0
  9 19  1  0
 19 20  1  0
 20 21  2  0
 21 22  1  0
 22 23  1  0
 22 24  1  0
 24  1  1  0
 17 11  1  0
 24 19  2  0
  1 25  1  0
  3 26  1  0
  4 27  1  0
  4 28  1  0
  5 29  1  0
  5 30  1  0
  6 31  1  0
  6 32  1  0
  7 33  1  0
  7 34  1  0
  7 35  1  0
 12 36  1  0
 14 37  1  0
 14 38  1  0
 14 39  1  0
 15 40  1  0
 16 41  1  0
 18 42  1  0
 20 43  1  0
 23 44  1  0
 23 45  1  0
 23 46  1  0
M  END
>  <ScrubInfo>  (6) 
{"isomerGroup": 0, "isomerId": 5, "confId": 0, "nr_conformers:": 1, "nr_isomers:": 9}

$$$$
_i6
     RDKit          3D

 46 48  0  0  0  0  0  0  0  0999 V2000
   -1.2321   -2.2885   -2.3658 N   0  0  0  0  0  0  0  0  0  0  0  0
   -1.5898   -1.1061   -1.7254 C   0  0  0  0  0  0  0  0  0  0  0  0
   -0.6338   -0.6413   -0.9105 C   0  0  0  0  0  0  0  0  0  0  0  0
   -0.3947    0.5009   -0.0312 C   0  0  0  0  0  0  0  0  0  0  0  0
   -1.3140    1.5041    0.2012 N   0  0  0  0  0  0  0  0  0  0  0  0
   -2.6840    1.2610    0.4727 C   0  0  0  0  0  0  0  0  0  0  0  0
   -3.6161    2.2095    0.0260 C   0  0  0  0  0  0  0  0  0  0  0  0
   -4.9830    2.0786    0.3107 C   0  0  0  0  0  0  0  0  0  0  0  0
   -5.9593    3.1109   -0.1712 C   0  0  0  0  0  0  0  0  0  0  0  0
   -5.4136    1.0089    1.1024 C   0  0  0  0  0  0  0  0  0  0  0  0
   -4.4962    0.0792    1.5937 C   0  0  0  0  0  0  0  0  0  0  0  0
   -3.1416    0.2157    1.2904 C   0  0  0  0  0  0  0  0  0  0  0  0
   -2.2424   -0.6719    1.8147 O   0  0  0  0  0  0  0  0  0  0  0  0
    0.7769    0.6079    0.5353 N   0  0  0  0  0  0  0  0  0  0  0  0
    1.7202   -0.3713    0.3124 C   0  0  0  0  0  0  0  0  0  0  0  0
    2.8478   -0.1378    0.8872 N   0  0  0  0  0  0  0  0  0  0  0  0
    3.9169   -1.1154    0.7100 C   0  0  0  0  0  0  0  0  0  0  0  0
    5.1763   -0.6254    1.4288 C   0  0  0  0  0  0  0  0  0  0  0  0
    5.9866    0.4185    0.6529 C   0  0  0  0  0  0  0  0  0  0  0  0
    5.2789    1.7503    0.4637 C   0  0  0  0  0  0  0  0  0  0  0  0
    1.5650   -1.5187   -0.4348 N   0  0  0  0  0  0  0  0  0  0  0  0
    0.4272   -1.6625   -1.0212 C   0  0  0  0  0  0  0  0  0  0  0  0
   -0.0137   -2.7071   -1.8368 N   0  0  0  0  0  0  0  0  0  0  0  0
    0.9145   -3.4247   -2.6896 C   0  0  0  0  0  0  0  0  0  0  0  0
   -1.9806   -2.9848   -2.3686 H   0  0  0  0  0  0  0  0  0  0  0  0
   -2.5618   -0.6745   -1.9160 H   0  0  0  0  0  0  0  0  0  0  0  0
   -0.9404    2.1229    0.9185 H   0  0  0  0  0  0  0  0  0  0  0  0
   -3.2681    3.0547   -0.5657 H   0  0  0  0  0  0  0  0  0  0  0  0
   -6.0399    3.9202    0.5610 H   0  0  0  0  0  0  0  0  0  0  0  0
   -6.9505    2.6707   -0.3229 H   0  0  0  0  0  0  0  0  0  0  0  0
   -5.6407    3.5310   -1.1310 H   0  0  0  0  0  0  0  0  0  0  0  0
   -6.4672    0.9012    1.3525 H   0  0  0  0  0  0  0  0  0  0  0  0
   -4.8530   -0.7341    2.2183 H   0  0  0  0  0  0  0  0  0  0  0  0
   -2.6913   -1.2449    2.4571 H   0  0  0  0  0  0  0  0  0  0  0  0
    3.6188   -2.0699    1.1614 H   0  0  0  0  0  0  0  0  0  0  0  0
    4.1401   -1.2851   -0.3502 H   0  0  0  0  0  0  0  0  0  0  0  0
    4.9213   -0.2353    2.4218 H   0  0  0  0  0  0  0  0  0  0  0  0
    5.8307   -1.4916    1.5887 H   0  0  0  0  0  0  0  0  0  0  0  0
    6.2705    0.0161   -0.3266 H   0  0  0  0  0  0  0  0  0  0  0  0
    6.9203    0.5997    1.1993 H   0  0  0  0  0  0  0  0  0  0  0  0
    4.9158    2.1445    1.4179 H   0  0  0  0  0  0  0  0  0  0  0  0
    5.9704    2.4837    0.0362 H   0  0  0  0  0  0  0  0  0  0  0  0
    4.4336    1.6607   -0.2243 H   0  0  0  0  0  0  0  0  0  0  0  0
    1.3284   -2.7632   -3.4579 H   0  0  0  0  0  0  0  0  0  0  0  0
    1.7396   -3.8369   -2.1000 H   0  0  0  0  0  0  0  0  0  0  0  0
    0.4083   -4.2595   -3.1851 H   0  0  0  0  0  0  0  0  0  0  0  0
  1  2  1  0
  2  3  2  0
  3  4  1  0
  4  5  1  0
  5  6  1  0
  6  7  2  0
  7  8  1  0
  8  9  1  0
  8 10  2  0
 10 11  1  0
 11 12  2  0
 12 13  1  0
  4 14  2  0
 14 15  1  0
 15 16  2  3
 16 17  1  0
 17 18  1  0
 18 19  1  0
 19 20  1  0
 15 21  1  0
 21 22  2  0
 22 23  1  0
 23 24  1  0
 23  1  1  0
 22  3  1  0
 12  6  1  0
  1 25  1  0
  2 26  1  0
  5 27  1  0
  7 28  1  0
  9 29  1  0
  9 30  1  0
  9 31  1  0
 10 32  1  0
 11 33  1  0
 13 34  1  0
 17 35  1  0
 17 36  1  0
 18 37  1  0
 18 38  1  0
 19 39  1  0
 19 40  1  0
 20 41  1  0
 20 42  1  0
 20 43  1  0
 24 44  1  0
 24 45  1  0
 24 46  1  0
M  END
>  <ScrubInfo>  (7) 
{"isomerGroup": 0, "isomerId": 6, "confId": 0, "nr_conformers:": 1, "nr_isomers:": 9}

$$$$
_i7
     RDKit          3D

 46 48  0  0  0  0  0  0  0  0999 V2000
   -1.5005    3.2304    0.5408 N   0  0  0  0  0  0  0  0  0  0  0  0
   -1.8977    1.9275    0.2588 C   0  0  0  0  0  0  0  0  0  0  0  0
   -0.8775    1.0626    0.1683 C   0  0  0  0  0  0  0  0  0  0  0  0
   -0.6243   -0.3740   -0.0430 C   0  0  0  0  0  0  0  0  0  0  0  0
   -1.4611   -1.3346   -0.3029 N   0  0  0  0  0  0  0  0  0  0  0  0
   -2.8234   -1.0626   -0.4948 C   0  0  0  0  0  0  0  0  0  0  0  0
   -3.7247   -1.3402    0.5381 C   0  0  0  0  0  0  0  0  0  0  0  0
   -5.1006   -1.1258    0.3730 C   0  0  0  0  0  0  0  0  0  0  0  0
   -6.0483   -1.3907    1.5054 C   0  0  0  0  0  0  0  0  0  0  0  0
   -5.5705   -0.6165   -0.8441 C   0  0  0  0  0  0  0  0  0  0  0  0
   -4.6857   -0.3529   -1.8918 C   0  0  0  0  0  0  0  0  0  0  0  0
   -3.3220   -0.5826   -1.7159 C   0  0  0  0  0  0  0  0  0  0  0  0
   -2.4473   -0.3142   -2.7357 O   0  0  0  0  0  0  0  0  0  0  0  0
    0.7026   -0.6955    0.0754 N   0  0  0  0  0  0  0  0  0  0  0  0
    1.7474    0.1583    0.3235 C   0  0  0  0  0  0  0  0  0  0  0  0
    2.9870   -0.1658    0.4389 N   0  0  0  0  0  0  0  0  0  0  0  0
    3.3758   -1.5628    0.3002 C   0  0  0  0  0  0  0  0  0  0  0  0
    4.8893   -1.6828    0.4826 C   0  0  0  0  0  0  0  0  0  0  0  0
    5.6706   -1.0205   -0.6546 C   0  0  0  0  0  0  0  0  0  0  0  0
    7.1705   -1.1916   -0.4707 C   0  0  0  0  0  0  0  0  0  0  0  0
    1.5328    1.5125    0.4746 N   0  0  0  0  0  0  0  0  0  0  0  0
    0.3161    1.9490    0.3895 C   0  0  0  0  0  0  0  0  0  0  0  0
   -0.1137    3.2739    0.5023 N   0  0  0  0  0  0  0  0  0  0  0  0
    0.5907    4.2139    1.3530 C   0  0  0  0  0  0  0  0  0  0  0  0
   -1.9846    3.9292   -0.0270 H   0  0  0  0  0  0  0  0  0  0  0  0
   -2.9528    1.7290    0.1455 H   0  0  0  0  0  0  0  0  0  0  0  0
   -3.3404   -1.7330    1.4767 H   0  0  0  0  0  0  0  0  0  0  0  0
   -5.6937   -2.2211    2.1250 H   0  0  0  0  0  0  0  0  0  0  0  0
   -7.0392   -1.6665    1.1296 H   0  0  0  0  0  0  0  0  0  0  0  0
   -6.1430   -0.4973    2.1302 H   0  0  0  0  0  0  0  0  0  0  0  0
   -6.6333   -0.4299   -0.9852 H   0  0  0  0  0  0  0  0  0  0  0  0
   -5.0741    0.0339   -2.8287 H   0  0  0  0  0  0  0  0  0  0  0  0
   -2.9519   -0.1767   -3.5527 H   0  0  0  0  0  0  0  0  0  0  0  0
    0.9077   -1.6697   -0.0698 H   0  0  0  0  0  0  0  0  0  0  0  0
    3.0927   -1.9546   -0.6839 H   0  0  0  0  0  0  0  0  0  0  0  0
    2.8854   -2.1688    1.0714 H   0  0  0  0  0  0  0  0  0  0  0  0
    5.1525   -2.7467    0.5278 H   0  0  0  0  0  0  0  0  0  0  0  0
    5.1834   -1.2364    1.4406 H   0  0  0  0  0  0  0  0  0  0  0  0
    5.3743   -1.4597   -1.6143 H   0  0  0  0  0  0  0  0  0  0  0  0
    5.4383    0.0494   -0.7018 H   0  0  0  0  0  0  0  0  0  0  0  0
    7.4458   -2.2510   -0.4555 H   0  0  0  0  0  0  0  0  0  0  0  0
    7.5051   -0.7357    0.4666 H   0  0  0  0  0  0  0  0  0  0  0  0
    7.7102   -0.7123   -1.2934 H   0  0  0  0  0  0  0  0  0  0  0  0
    0.1646    5.2168    1.2465 H   0  0  0  0  0  0  0  0  0  0  0  0
    0.5197    3.9160    2.4043 H   0  0  0  0  0  0  0  0  0  0  0  0
    1.6479    4.2700    1.0744 H   0  0  0  0  0  0  0  0  0  0  0  0
  1  2  1  0
  2  3  2  0
  3  4  1  0
  4  5  2  3
  5  6  1  0
  6  7  2  0
  7  8  1  0
  8  9  1  0
  8 10  2  0
 10 11  1  0
 11 12  2  0
 12 13  1  0
  4 14  1  0
 14 15  1  0
 15 16  2  3
 16 17  1  0
 17 18  1  0
 18 19  1  0
 19 20  1  0
 15 21  1  0
 21 22  2  0
 22 23  1  0
 23 24  1  0
 23  1  1  0
 22  3  1  0
 12  6  1  0
  1 25  1  0
  2 26  1  0
  7 27  1  0
  9 28  1  0
  9 29  1  0
  9 30  1  0
 10 31  1  0
 11 32  1  0
 13 33  1  0
 14 34  1  0
 17 35  1  0
 17 36  1  0
 18 37  1  0
 18 38  1  0
 19 39  1  0
 19 40  1  0
 20 41  1  0
 20 42  1  0
 20 43  1  0
 24 44  1  0
 24 45  1  0
 24 46  1  0
M  END
>  <ScrubInfo>  (8) 
{"isomerGroup": 0, "isomerId": 7, "confId": 0, "nr_conformers:": 1, "nr_isomers:": 9}

$$$$
_i8
     RDKit          3D

 46 48  0  0  0  0  0  0  0  0999 V2000
    0.8731    2.3643    0.7978 N   0  0  0  0  0  0  0  0  0  0  0  0
    1.7017    1.2779    0.6062 C   0  0  0  0  0  0  0  0  0  0  0  0
    2.9734    1.4854    0.5674 N   0  0  0  0  0  0  0  0  0  0  0  0
    3.8946    0.3658    0.3874 C   0  0  0  0  0  0  0  0  0  0  0  0
    4.1173    0.1132   -1.1028 C   0  0  0  0  0  0  0  0  0  0  0  0
    5.0058   -1.0992   -1.3857 C   0  0  0  0  0  0  0  0  0  0  0  0
    6.4351   -0.9326   -0.8936 C   0  0  0  0  0  0  0  0  0  0  0  0
    1.0149    0.0862    0.4720 N   0  0  0  0  0  0  0  0  0  0  0  0
   -0.3391   -0.1888    0.4842 C   0  0  0  0  0  0  0  0  0  0  0  0
   -0.7657   -1.4044    0.3016 N   0  0  0  0  0  0  0  0  0  0  0  0
   -2.1329   -1.7095    0.2457 C   0  0  0  0  0  0  0  0  0  0  0  0
   -2.8581   -1.5539   -0.9389 C   0  0  0  0  0  0  0  0  0  0  0  0
   -4.2216   -1.8826   -0.9896 C   0  0  0  0  0  0  0  0  0  0  0  0
   -5.0065   -1.6630   -2.2491 C   0  0  0  0  0  0  0  0  0  0  0  0
   -4.8540   -2.3664    0.1653 C   0  0  0  0  0  0  0  0  0  0  0  0
   -4.1304   -2.5556    1.3436 C   0  0  0  0  0  0  0  0  0  0  0  0
   -2.7791   -2.2399    1.3683 C   0  0  0  0  0  0  0  0  0  0  0  0
   -2.0763   -2.4568    2.5223 O   0  0  0  0  0  0  0  0  0  0  0  0
   -1.1195    1.0139    0.7192 C   0  0  0  0  0  0  0  0  0  0  0  0
   -2.4746    1.3559    0.8879 C   0  0  0  0  0  0  0  0  0  0  0  0
   -2.6597    2.6695    1.0893 N   0  0  0  0  0  0  0  0  0  0  0  0
   -1.4093    3.1797    1.0615 N   0  0  0  0  0  0  0  0  0  0  0  0
   -1.2209    4.5940    1.2645 C   0  0  0  0  0  0  0  0  0  0  0  0
   -0.4672    2.2202    0.8554 C   0  0  0  0  0  0  0  0  0  0  0  0
    1.3623    3.2453    0.9057 H   0  0  0  0  0  0  0  0  0  0  0  0
    3.5522   -0.5397    0.9010 H   0  0  0  0  0  0  0  0  0  0  0  0
    4.8411    0.6417    0.8647 H   0  0  0  0  0  0  0  0  0  0  0  0
    3.1506   -0.0485   -1.5954 H   0  0  0  0  0  0  0  0  0  0  0  0
    4.5507    1.0079   -1.5672 H   0  0  0  0  0  0  0  0  0  0  0  0
    4.5667   -1.9964   -0.9342 H   0  0  0  0  0  0  0  0  0  0  0  0
    5.0279   -1.2683   -2.4689 H   0  0  0  0  0  0  0  0  0  0  0  0
    7.0423   -1.7876   -1.2079 H   0  0  0  0  0  0  0  0  0  0  0  0
    6.8891   -0.0254   -1.3047 H   0  0  0  0  0  0  0  0  0  0  0  0
    6.4798   -0.8788    0.1980 H   0  0  0  0  0  0  0  0  0  0  0  0
    1.5705   -0.7322    0.2819 H   0  0  0  0  0  0  0  0  0  0  0  0
   -2.3556   -1.1691   -1.8228 H   0  0  0  0  0  0  0  0  0  0  0  0
   -5.4136   -0.6473   -2.2632 H   0  0  0  0  0  0  0  0  0  0  0  0
   -5.8333   -2.3771   -2.3241 H   0  0  0  0  0  0  0  0  0  0  0  0
   -4.3747   -1.8041   -3.1323 H   0  0  0  0  0  0  0  0  0  0  0  0
   -5.9144   -2.6098    0.1502 H   0  0  0  0  0  0  0  0  0  0  0  0
   -4.6146   -2.9504    2.2316 H   0  0  0  0  0  0  0  0  0  0  0  0
   -1.1467   -2.2787    2.2808 H   0  0  0  0  0  0  0  0  0  0  0  0
   -3.3498    0.7205    0.8806 H   0  0  0  0  0  0  0  0  0  0  0  0
   -2.0487    5.1332    0.7964 H   0  0  0  0  0  0  0  0  0  0  0  0
   -1.2027    4.7836    2.3404 H   0  0  0  0  0  0  0  0  0  0  0  0
   -0.2802    4.9079    0.8066 H   0  0  0  0  0  0  0  0  0  0  0  0
  1  2  1  0
  2  3  2  3
  3  4  1  0
  4  5  1  0
  5  6  1  0
  6  7  1  0
  2  8  1  0
  8  9  1  0
  9 10  2  3
 10 11  1  0
 11 12  2  0
 12 13  1  0
 13 14  1  0
 13 15  2  0
 15 16  1  0
 16 17  2  0
 17 18  1  0
  9 19  1  0
 19 20  1  0
 20 21  2  0
 21 22  1  0
 22 23  1  0
 22 24  1  0
 24  1  1  0
 17 11  1  0
 24 19  2  0
  1 25  1  0
  4 26  1  0
  4 27  1  0
  5 28  1  0
  5 29  1  0
  6 30  1  0
  6 31  1  0
  7 32  1  0
  7 33  1  0
  7 34  1  0
  8 35  1  0
 12 36  1  0
 14 37  1  0
 14 38  1  0
 14 39  1  0
 15 40  1  0
 16 41  1  0
 18 42  1  0
 20 43  1  0
 23 44  1  0
 23 45  1  0
 23 46  1  0
M  END
>  <ScrubInfo>  (9) 
{"isomerGroup": 0, "isomerId": 8, "confId": 0, "nr_conformers:": 1, "nr_isomers:": 9}

$$$$
