_i0
     RDKit          3D

 43 45  0  0  0  0  0  0  0  0999 V2000
    5.2917   -1.1668   -0.4628 C   0  0  0  0  0  0  0  0  0  0  0  0
    4.8976   -2.2492    0.5287 C   0  0  0  0  0  0  0  0  0  0  0  0
    3.9812   -1.7704    1.6600 C   0  0  0  0  0  0  0  0  0  0  0  0
    2.5774   -1.3523    1.2117 C   0  0  0  0  0  0  0  0  0  0  0  0
    2.5985   -0.0104    0.6589 N   0  0  0  0  0  0  0  0  0  0  0  0
    1.3589    0.4948    0.2874 C   0  0  0  0  0  0  0  0  0  0  0  0
    0.4239   -0.3371   -0.2136 N   0  0  0  0  0  0  0  0  0  0  0  0
   -0.7854    0.1452   -0.5853 C   0  0  0  0  0  0  0  0  0  0  0  0
   -1.7031   -0.7807   -1.1163 N   0  0  0  0  0  0  0  0  0  0  0  0
   -3.0750   -0.8739   -0.7732 C   0  0  0  0  0  0  0  0  0  0  0  0
   -3.5607   -0.5790    0.5048 C   0  0  0  0  0  0  0  0  0  0  0  0
   -4.9108   -0.7828    0.8035 C   0  0  0  0  0  0  0  0  0  0  0  0
   -5.4994   -0.4014    2.3756 Cl  0  0  0  0  0  0  0  0  0  0  0  0
   -5.7845   -1.3040   -0.1514 C   0  0  0  0  0  0  0  0  0  0  0  0
   -5.3059   -1.6323   -1.4182 C   0  0  0  0  0  0  0  0  0  0  0  0
   -3.9636   -1.4218   -1.7117 C   0  0  0  0  0  0  0  0  0  0  0  0
   -3.5199   -1.7447   -2.9653 O   0  0  0  0  0  0  0  0  0  0  0  0
   -1.0151    1.5147   -0.4511 C   0  0  0  0  0  0  0  0  0  0  0  0
   -2.0370    2.4492   -0.7144 C   0  0  0  0  0  0  0  0  0  0  0  0
   -1.7002    3.6972   -0.3678 N   0  0  0  0  0  0  0  0  0  0  0  0
   -0.4409    3.5573    0.1084 N   0  0  0  0  0  0  0  0  0  0  0  0
    0.2738    4.7191    0.5733 C   0  0  0  0  0  0  0  0  0  0  0  0
    0.0139    2.2672    0.0783 C   0  0  0  0  0  0  0  0  0  0  0  0
    1.2132    1.8132    0.4724 N   0  0  0  0  0  0  0  0  0  0  0  0
    5.6985   -0.2896    0.0498 H   0  0  0  0  0  0  0  0  0  0  0  0
    4.4407   -0.8537   -1.0741 H   0  0  0  0  0  0  0  0  0  0  0  0
    6.0598   -1.5462   -1.1447 H   0  0  0  0  0  0  0  0  0  0  0  0
    5.8131   -2.6509    0.9799 H   0  0  0  0  0  0  0  0  0  0  0  0
    4.4238   -3.0791   -0.0085 H   0  0  0  0  0  0  0  0  0  0  0  0
    3.8716   -2.6062    2.3629 H   0  0  0  0  0  0  0  0  0  0  0  0
    4.4672   -0.9578    2.2142 H   0  0  0  0  0  0  0  0  0  0  0  0
    2.1952   -2.0795    0.4851 H   0  0  0  0  0  0  0  0  0  0  0  0
    1.9173   -1.3730    2.0884 H   0  0  0  0  0  0  0  0  0  0  0  0
    3.0253    0.6978    1.2466 H   0  0  0  0  0  0  0  0  0  0  0  0
   -1.2564   -1.6912   -0.9856 H   0  0  0  0  0  0  0  0  0  0  0  0
   -2.8965   -0.2024    1.2778 H   0  0  0  0  0  0  0  0  0  0  0  0
   -6.8328   -1.4634    0.0872 H   0  0  0  0  0  0  0  0  0  0  0  0
   -5.9710   -2.0464   -2.1704 H   0  0  0  0  0  0  0  0  0  0  0  0
   -2.6066   -1.4028   -3.0190 H   0  0  0  0  0  0  0  0  0  0  0  0
   -3.0149    2.2718   -1.1440 H   0  0  0  0  0  0  0  0  0  0  0  0
    0.3746    5.4172   -0.2616 H   0  0  0  0  0  0  0  0  0  0  0  0
    1.2626    4.4303    0.9363 H   0  0  0  0  0  0  0  0  0  0  0  0
   -0.2999    5.1739    1.3848 H   0  0  0  0  0  0  0  0  0  0  0  0
  1  2  1  0
  2  3  1  0
  3  4  1  0
  4  5  1  0
  5  6  1  0
  6  7  2  0
  7  8  1  0
  8  9  1  0
  9 10  1  0
 10 11  2  0
 11 12  1  0
 12 13  1  0
 12 14  2  0
 14 15  1  0
 15 16  2  0
 16 17  1  0
  8 18  2  0
 18 19  1  0
 19 20  2  0
 20 21  1  0
 21 22  1  0
 21 23  1  0
 23 24  2  0
 24  6  1  0
 16 10  1  0
 23 18  1  0
  1 25  1  0
  1 26  1  0
  1 27  1  0
  2 28  1  0
  2 29  1  0
  3 30  1  0
  3 31  1  0
  4 32  1  0
  4 33  1  0
  5 34  1  0
  9 35  1  0
 11 36  1  0
 14 37  1  0
 15 38  1  0
 17 39  1  0
 19 40  1  0
 22 41  1  0
 22 42  1  0
 22 43  1  0
M  END
>  <ScrubInfo>  (1) 
{"isomerGroup": 0, "isomerId": 0, "confId": 0, "nr_conformers:": 1, "nr_isomers:": 9}

$$$$
_i1
     RDKit          3D

 43 45  0  0  0  0  0  0  0  0999 V2000
    0.3054   -0.0973   -0.2844 N   0  0  0  0  0  0  0  0  0  0  0  0
    1.3999   -0.8716    0.0472 C   0  0  0  0  0  0  0  0  0  0  0  0
    2.6674   -0.3643    0.2358 N   0  0  0  0  0  0  0  0  0  0  0  0
    3.1139    0.9399    0.5250 C   0  0  0  0  0  0  0  0  0  0  0  0
    2.2984    1.9504    1.0416 C   0  0  0  0  0  0  0  0  0  0  0  0
    2.8162    3.2294    1.2628 C   0  0  0  0  0  0  0  0  0  0  0  0
    1.7987    4.4598    1.9070 Cl  0  0  0  0  0  0  0  0  0  0  0  0
    4.1489    3.5224    0.9749 C   0  0  0  0  0  0  0  0  0  0  0  0
    4.9821    2.5267    0.4688 C   0  0  0  0  0  0  0  0  0  0  0  0
    4.4609    1.2524    0.2518 C   0  0  0  0  0  0  0  0  0  0  0  0
    5.2615    0.2483   -0.2354 O   0  0  0  0  0  0  0  0  0  0  0  0
    1.1447   -2.1831    0.1379 C   0  0  0  0  0  0  0  0  0  0  0  0
    1.8758   -3.4088    0.4762 C   0  0  0  0  0  0  0  0  0  0  0  0
    1.1187   -4.4769    0.4722 N   0  0  0  0  0  0  0  0  0  0  0  0
   -0.1546   -4.0293    0.0833 N   0  0  0  0  0  0  0  0  0  0  0  0
   -1.2900   -4.8999    0.2675 C   0  0  0  0  0  0  0  0  0  0  0  0
   -0.2376   -2.6576   -0.0948 C   0  0  0  0  0  0  0  0  0  0  0  0
   -1.2484   -1.9130   -0.3897 N   0  0  0  0  0  0  0  0  0  0  0  0
   -0.9564   -0.5737   -0.5270 C   0  0  0  0  0  0  0  0  0  0  0  0
   -1.8667    0.2620   -0.9044 N   0  0  0  0  0  0  0  0  0  0  0  0
   -3.2044   -0.2751   -1.1517 C   0  0  0  0  0  0  0  0  0  0  0  0
   -4.1492    0.8711   -1.5201 C   0  0  0  0  0  0  0  0  0  0  0  0
   -4.6694    1.6768   -0.3248 C   0  0  0  0  0  0  0  0  0  0  0  0
   -3.6023    2.4702    0.4117 C   0  0  0  0  0  0  0  0  0  0  0  0
    0.4712    0.8605   -0.5522 H   0  0  0  0  0  0  0  0  0  0  0  0
    3.4483   -1.0079    0.1167 H   0  0  0  0  0  0  0  0  0  0  0  0
    1.2675    1.7489    1.3161 H   0  0  0  0  0  0  0  0  0  0  0  0
    4.5421    4.5205    1.1507 H   0  0  0  0  0  0  0  0  0  0  0  0
    6.0206    2.7590    0.2553 H   0  0  0  0  0  0  0  0  0  0  0  0
    6.1397    0.6201   -0.4267 H   0  0  0  0  0  0  0  0  0  0  0  0
    2.9440   -3.3828    0.7265 H   0  0  0  0  0  0  0  0  0  0  0  0
   -1.0126   -5.9432    0.0855 H   0  0  0  0  0  0  0  0  0  0  0  0
   -1.6717   -4.8163    1.2898 H   0  0  0  0  0  0  0  0  0  0  0  0
   -2.0959   -4.6432   -0.4275 H   0  0  0  0  0  0  0  0  0  0  0  0
   -3.5947   -0.8087   -0.2767 H   0  0  0  0  0  0  0  0  0  0  0  0
   -3.1670   -0.9714   -1.9986 H   0  0  0  0  0  0  0  0  0  0  0  0
   -3.6690    1.5441   -2.2411 H   0  0  0  0  0  0  0  0  0  0  0  0
   -5.0218    0.4383   -2.0254 H   0  0  0  0  0  0  0  0  0  0  0  0
   -5.4277    2.3791   -0.6919 H   0  0  0  0  0  0  0  0  0  0  0  0
   -5.1771    1.0091    0.3812 H   0  0  0  0  0  0  0  0  0  0  0  0
   -4.0699    3.1302    1.1498 H   0  0  0  0  0  0  0  0  0  0  0  0
   -3.0239    3.0918   -0.2788 H   0  0  0  0  0  0  0  0  0  0  0  0
   -2.9156    1.8129    0.9525 H   0  0  0  0  0  0  0  0  0  0  0  0
  1  2  1  0
  2  3  1  0
  3  4  1  0
  4  5  2  0
  5  6  1  0
  6  7  1  0
  6  8  2  0
  8  9  1  0
  9 10  2  0
 10 11  1  0
  2 12  2  0
 12 13  1  0
 13 14  2  0
 14 15  1  0
 15 16  1  0
 15 17  1  0
 17 18  2  0
 18 19  1  0
 19 20  2  3
 20 21  1  0
 21 22  1  0
 22 23  1  0
 23 24  1  0
 19  1  1  0
 10  4  1  0
 17 12  1  0
  1 25  1  0
  3 26  1  0
  5 27  1  0
  8 28  1  0
  9 29  1  0
 11 30  1  0
 13 31  1  0
 16 32  1  0
 16 33  1  0
 16 34  1  0
 21 35  1  0
 21 36  1  0
 22 37  1  0
 22 38  1  0
 23 39  1  0
 23 40  1  0
 24 41  1  0
 24 42  1  0
 24 43  1  0
M  END
>  <ScrubInfo>  (2) 
{"isomerGroup": 0, "isomerId": 1, "confId": 0, "nr_conformers:": 1, "nr_isomers:": 9}

$$$$
_i2
     RDKit          3D

 43 45  0  0  0  0  0  0  0  0999 V2000
   -0.4952    0.4341   -1.0163 N   0  0  0  0  0  0  0  0  0  0  0  0
   -1.2594   -0.6175   -1.4514 C   0  0  0  0  0  0  0  0  0  0  0  0
   -2.5182   -0.3220   -1.8930 N   0  0  0  0  0  0  0  0  0  0  0  0
   -3.4295    0.5875   -1.2136 C   0  0  0  0  0  0  0  0  0  0  0  0
   -3.8526    0.0195    0.1419 C   0  0  0  0  0  0  0  0  0  0  0  0
   -4.9258    0.8568    0.8399 C   0  0  0  0  0  0  0  0  0  0  0  0
   -4.4429    2.2402    1.2476 C   0  0  0  0  0  0  0  0  0  0  0  0
   -0.8487   -1.8611   -1.4728 N   0  0  0  0  0  0  0  0  0  0  0  0
    0.4211   -1.9761   -0.9891 C   0  0  0  0  0  0  0  0  0  0  0  0
    1.2621   -0.9771   -0.5203 C   0  0  0  0  0  0  0  0  0  0  0  0
    2.4430   -1.6551   -0.1720 C   0  0  0  0  0  0  0  0  0  0  0  0
    2.3679   -2.9756   -0.3827 N   0  0  0  0  0  0  0  0  0  0  0  0
    1.1219   -3.1442   -0.8814 N   0  0  0  0  0  0  0  0  0  0  0  0
    0.6800   -4.4667   -1.2453 C   0  0  0  0  0  0  0  0  0  0  0  0
    0.7883    0.3939   -0.5238 C   0  0  0  0  0  0  0  0  0  0  0  0
    1.4084    1.4764   -0.1648 N   0  0  0  0  0  0  0  0  0  0  0  0
    2.6929    1.4473    0.3909 C   0  0  0  0  0  0  0  0  0  0  0  0
    3.7875    1.7833   -0.4095 C   0  0  0  0  0  0  0  0  0  0  0  0
    5.0699    1.8053    0.1361 C   0  0  0  0  0  0  0  0  0  0  0  0
    6.4144    2.2086   -0.8595 Cl  0  0  0  0  0  0  0  0  0  0  0  0
    5.2753    1.5060    1.4833 C   0  0  0  0  0  0  0  0  0  0  0  0
    4.1885    1.1877    2.2990 C   0  0  0  0  0  0  0  0  0  0  0  0
    2.9052    1.1669    1.7527 C   0  0  0  0  0  0  0  0  0  0  0  0
    1.8305    0.8524    2.5412 O   0  0  0  0  0  0  0  0  0  0  0  0
   -0.8538    1.3643   -1.1440 H   0  0  0  0  0  0  0  0  0  0  0  0
   -2.9816   -1.1848   -2.1708 H   0  0  0  0  0  0  0  0  0  0  0  0
   -4.3127    0.7187   -1.8490 H   0  0  0  0  0  0  0  0  0  0  0  0
   -2.9723    1.5755   -1.1052 H   0  0  0  0  0  0  0  0  0  0  0  0
   -2.9795   -0.0773    0.7990 H   0  0  0  0  0  0  0  0  0  0  0  0
   -4.2447   -0.9958   -0.0000 H   0  0  0  0  0  0  0  0  0  0  0  0
   -5.2518    0.3226    1.7403 H   0  0  0  0  0  0  0  0  0  0  0  0
   -5.8052    0.9526    0.1926 H   0  0  0  0  0  0  0  0  0  0  0  0
   -5.2188    2.7536    1.8246 H   0  0  0  0  0  0  0  0  0  0  0  0
   -3.5449    2.1755    1.8701 H   0  0  0  0  0  0  0  0  0  0  0  0
   -4.2157    2.8594    0.3750 H   0  0  0  0  0  0  0  0  0  0  0  0
    3.3682   -1.2623    0.2237 H   0  0  0  0  0  0  0  0  0  0  0  0
   -0.3788   -4.4501   -1.5123 H   0  0  0  0  0  0  0  0  0  0  0  0
    1.2747   -4.8032   -2.0982 H   0  0  0  0  0  0  0  0  0  0  0  0
    0.8314   -5.1296   -0.3894 H   0  0  0  0  0  0  0  0  0  0  0  0
    3.6292    2.0285   -1.4556 H   0  0  0  0  0  0  0  0  0  0  0  0
    6.2782    1.5245    1.9026 H   0  0  0  0  0  0  0  0  0  0  0  0
    4.3591    0.9616    3.3470 H   0  0  0  0  0  0  0  0  0  0  0  0
    2.1343    0.6958    3.4492 H   0  0  0  0  0  0  0  0  0  0  0  0
  1  2  1  0
  2  3  1  0
  3  4  1  0
  4  5  1  0
  5  6  1  0
  6  7  1  0
  2  8  2  0
  8  9  1  0
  9 10  2  0
 10 11  1  0
 11 12  2  0
 12 13  1  0
 13 14  1  0
 10 15  1  0
 15 16  2  3
 16 17  1  0
 17 18  2  0
 18 19  1  0
 19 20  1  0
 19 21  2  0
 21 22  1  0
 22 23  2  0
 23 24  1  0
 15  1  1  0
 23 17  1  0
 13  9  1  0
  1 25  1  0
  3 26  1  0
  4 27  1  0
  4 28  1  0
  5 29  1  0
  5 30  1  0
  6 31  1  0
  6 32  1  0
  7 33  1  0
  7 34  1  0
  7 35  1  0
 11 36  1  0
 14 37  1  0
 14 38  1  0
 14 39  1  0
 18 40  1  0
 21 41  1  0
 22 42  1  0
 24 43  1  0
M  END
>  <ScrubInfo>  (3) 
{"isomerGroup": 0, "isomerId": 2, "confId": 0, "nr_conformers:": 1, "nr_isomers:": 9}

$$$$
_i3
     RDKit          3D

 43 45  0  0  0  0  0  0  0  0999 V2000
    0.5869    2.1574   -1.0657 N   0  0  0  0  0  0  0  0  0  0  0  0
    1.2093    0.9894   -0.6808 C   0  0  0  0  0  0  0  0  0  0  0  0
    2.4842    1.0219   -0.4673 N   0  0  0  0  0  0  0  0  0  0  0  0
    3.1250   -0.2293   -0.0580 C   0  0  0  0  0  0  0  0  0  0  0  0
    4.6178    0.0446    0.1293 C   0  0  0  0  0  0  0  0  0  0  0  0
    5.4319   -1.2113    0.4443 C   0  0  0  0  0  0  0  0  0  0  0  0
    5.0778   -1.8444    1.7809 C   0  0  0  0  0  0  0  0  0  0  0  0
    0.5039   -0.1964   -0.5211 N   0  0  0  0  0  0  0  0  0  0  0  0
   -0.7833   -0.1980   -0.7296 C   0  0  0  0  0  0  0  0  0  0  0  0
   -1.5508   -1.3314   -0.6052 N   0  0  0  0  0  0  0  0  0  0  0  0
   -2.6355   -1.4211    0.3155 C   0  0  0  0  0  0  0  0  0  0  0  0
   -2.6789   -0.6955    1.5119 C   0  0  0  0  0  0  0  0  0  0  0  0
   -3.7266   -0.8994    2.4142 C   0  0  0  0  0  0  0  0  0  0  0  0
   -3.7784    0.0090    3.8753 Cl  0  0  0  0  0  0  0  0  0  0  0  0
   -4.7236   -1.8393    2.1519 C   0  0  0  0  0  0  0  0  0  0  0  0
   -4.6746   -2.5890    0.9782 C   0  0  0  0  0  0  0  0  0  0  0  0
   -3.6352   -2.3782    0.0792 C   0  0  0  0  0  0  0  0  0  0  0  0
   -3.6220   -3.1229   -1.0682 O   0  0  0  0  0  0  0  0  0  0  0  0
   -1.4706    0.9980   -1.1605 C   0  0  0  0  0  0  0  0  0  0  0  0
   -2.7705    1.3818   -1.5227 C   0  0  0  0  0  0  0  0  0  0  0  0
   -2.8431    2.6793   -1.8599 N   0  0  0  0  0  0  0  0  0  0  0  0
   -1.5705    3.1259   -1.7153 N   0  0  0  0  0  0  0  0  0  0  0  0
   -1.2725    4.5059   -2.0021 C   0  0  0  0  0  0  0  0  0  0  0  0
   -0.7321    2.1397   -1.3058 C   0  0  0  0  0  0  0  0  0  0  0  0
    1.2032    2.9539   -1.1599 H   0  0  0  0  0  0  0  0  0  0  0  0
    2.6934   -0.5845    0.8845 H   0  0  0  0  0  0  0  0  0  0  0  0
    2.9925   -0.9995   -0.8274 H   0  0  0  0  0  0  0  0  0  0  0  0
    4.7602    0.7887    0.9230 H   0  0  0  0  0  0  0  0  0  0  0  0
    5.0173    0.4949   -0.7886 H   0  0  0  0  0  0  0  0  0  0  0  0
    5.3022   -1.9503   -0.3549 H   0  0  0  0  0  0  0  0  0  0  0  0
    6.4948   -0.9420    0.4571 H   0  0  0  0  0  0  0  0  0  0  0  0
    5.1672   -1.1190    2.5956 H   0  0  0  0  0  0  0  0  0  0  0  0
    5.7559   -2.6773    1.9931 H   0  0  0  0  0  0  0  0  0  0  0  0
    4.0581   -2.2406    1.7796 H   0  0  0  0  0  0  0  0  0  0  0  0
   -0.9196   -2.1024   -0.3778 H   0  0  0  0  0  0  0  0  0  0  0  0
   -1.9007    0.0227    1.7576 H   0  0  0  0  0  0  0  0  0  0  0  0
   -5.5344   -1.9963    2.8587 H   0  0  0  0  0  0  0  0  0  0  0  0
   -5.4407   -3.3290    0.7641 H   0  0  0  0  0  0  0  0  0  0  0  0
   -2.9366   -2.7359   -1.6440 H   0  0  0  0  0  0  0  0  0  0  0  0
   -3.6721    0.7839   -1.5595 H   0  0  0  0  0  0  0  0  0  0  0  0
   -1.4887    4.6921   -3.0570 H   0  0  0  0  0  0  0  0  0  0  0  0
   -0.2196    4.7099   -1.7970 H   0  0  0  0  0  0  0  0  0  0  0  0
   -1.9012    5.1340   -1.3659 H   0  0  0  0  0  0  0  0  0  0  0  0
  1  2  1  0
  2  3  2  3
  3  4  1  0
  4  5  1  0
  5  6  1  0
  6  7  1  0
  2  8  1  0
  8  9  2  0
  9 10  1  0
 10 11  1  0
 11 12  2  0
 12 13  1  0
 13 14  1  0
 13 15  2  0
 15 16  1  0
 16 17  2  0
 17 18  1  0
  9 19  1  0
 19 20  1  0
 20 21  2  0
 21 22  1  0
 22 23  1  0
 22 24  1  0
 24  1  1  0
 17 11  1  0
 24 19  2  0
  1 25  1  0
  4 26  1  0
  4 27  1  0
  5 28  1  0
  5 29  1  0
  6 30  1  0
  6 31  1  0
  7 32  1  0
  7 33  1  0
  7 34  1  0
 10 35  1  0
 12 36  1  0
 15 37  1  0
 16 38  1  0
 18 39  1  0
 20 40  1  0
 23 41  1  0
 23 42  1  0
 23 43  1  0
M  END
>  <ScrubInfo>  (4) 
{"isomerGroup": 0, "isomerId": 3, "confId": 0, "nr_conformers:": 1, "nr_isomers:": 9}

$$$$
_i4
     RDKit          3D

 43 45  0  0  0  0  0  0  0  0999 V2000
   -0.7269    4.1132   -1.1591 N   0  0  0  0  0  0  0  0  0  0  0  0
   -1.7299    3.2281   -0.7765 C   0  0  0  0  0  0  0  0  0  0  0  0
   -1.3116    1.9564   -0.7359 C   0  0  0  0  0  0  0  0  0  0  0  0
   -1.8599    0.6653   -0.3919 C   0  0  0  0  0  0  0  0  0  0  0  0
   -3.0970    0.5131   -0.0288 N   0  0  0  0  0  0  0  0  0  0  0  0
   -3.5583   -0.7833    0.2759 C   0  0  0  0  0  0  0  0  0  0  0  0
   -3.7480   -1.7540   -0.7096 C   0  0  0  0  0  0  0  0  0  0  0  0
   -4.2282   -3.0156   -0.3557 C   0  0  0  0  0  0  0  0  0  0  0  0
   -4.4436   -4.2162   -1.5713 Cl  0  0  0  0  0  0  0  0  0  0  0  0
   -4.5389   -3.3176    0.9725 C   0  0  0  0  0  0  0  0  0  0  0  0
   -4.3746   -2.3472    1.9601 C   0  0  0  0  0  0  0  0  0  0  0  0
   -3.8955   -1.0934    1.6010 C   0  0  0  0  0  0  0  0  0  0  0  0
   -3.7622   -0.1394    2.5742 O   0  0  0  0  0  0  0  0  0  0  0  0
   -0.9644   -0.3667   -0.4607 N   0  0  0  0  0  0  0  0  0  0  0  0
    0.2713   -0.1975   -0.8377 C   0  0  0  0  0  0  0  0  0  0  0  0
    1.0469   -1.3189   -0.8523 N   0  0  0  0  0  0  0  0  0  0  0  0
    2.4922   -1.3079   -0.8260 C   0  0  0  0  0  0  0  0  0  0  0  0
    3.0024   -1.0050    0.5822 C   0  0  0  0  0  0  0  0  0  0  0  0
    4.5293   -1.0268    0.6365 C   0  0  0  0  0  0  0  0  0  0  0  0
    5.0414   -0.7249    2.0358 C   0  0  0  0  0  0  0  0  0  0  0  0
    0.8343    0.9965   -1.2113 N   0  0  0  0  0  0  0  0  0  0  0  0
    0.0825    2.0406   -1.1868 C   0  0  0  0  0  0  0  0  0  0  0  0
    0.3842    3.3591   -1.5307 N   0  0  0  0  0  0  0  0  0  0  0  0
    1.7110    3.9024   -1.3144 C   0  0  0  0  0  0  0  0  0  0  0  0
   -1.0419    4.8116   -1.8369 H   0  0  0  0  0  0  0  0  0  0  0  0
   -2.7187    3.6037   -0.5538 H   0  0  0  0  0  0  0  0  0  0  0  0
   -3.5105   -1.5247   -1.7435 H   0  0  0  0  0  0  0  0  0  0  0  0
   -4.9141   -4.3013    1.2411 H   0  0  0  0  0  0  0  0  0  0  0  0
   -4.6222   -2.5610    2.9952 H   0  0  0  0  0  0  0  0  0  0  0  0
   -3.4751    0.6581    2.0860 H   0  0  0  0  0  0  0  0  0  0  0  0
    0.5984   -2.1043   -0.3961 H   0  0  0  0  0  0  0  0  0  0  0  0
    2.8901   -0.5861   -1.5486 H   0  0  0  0  0  0  0  0  0  0  0  0
    2.8488   -2.2951   -1.1413 H   0  0  0  0  0  0  0  0  0  0  0  0
    2.6379   -0.0235    0.9097 H   0  0  0  0  0  0  0  0  0  0  0  0
    2.5962   -1.7414    1.2872 H   0  0  0  0  0  0  0  0  0  0  0  0
    4.8994   -2.0098    0.3225 H   0  0  0  0  0  0  0  0  0  0  0  0
    4.9371   -0.2876   -0.0628 H   0  0  0  0  0  0  0  0  0  0  0  0
    6.1355   -0.7457    2.0517 H   0  0  0  0  0  0  0  0  0  0  0  0
    4.6769   -1.4651    2.7551 H   0  0  0  0  0  0  0  0  0  0  0  0
    4.7156    0.2663    2.3673 H   0  0  0  0  0  0  0  0  0  0  0  0
    1.7812    4.9127   -1.7303 H   0  0  0  0  0  0  0  0  0  0  0  0
    1.9427    3.9491   -0.2452 H   0  0  0  0  0  0  0  0  0  0  0  0
    2.4661    3.2837   -1.8098 H   0  0  0  0  0  0  0  0  0  0  0  0
  1  2  1  0
  2  3  2  0
  3  4  1  0
  4  5  2  3
  5  6  1  0
  6  7  2  0
  7  8  1  0
  8  9  1  0
  8 10  2  0
 10 11  1  0
 11 12  2  0
 12 13  1  0
  4 14  1  0
 14 15  2  0
 15 16  1  0
 16 17  1  0
 17 18  1  0
 18 19  1  0
 19 20  1  0
 15 21  1  0
 21 22  2  0
 22 23  1  0
 23 24  1  0
 23  1  1  0
 22  3  1  0
 12  6  1  0
  1 25  1  0
  2 26  1  0
  7 27  1  0
 10 28  1  0
 11 29  1  0
 13 30  1  0
 16 31  1  0
 17 32  1  0
 17 33  1  0
 18 34  1  0
 18 35  1  0
 19 36  1  0
 19 37  1  0
 20 38  1  0
 20 39  1  0
 20 40  1  0
 24 41  1  0
 24 42  1  0
 24 43  1  0
M  END
>  <ScrubInfo>  (5) 
{"isomerGroup": 0, "isomerId": 4, "confId": 0, "nr_conformers:": 1, "nr_isomers:": 9}

$$$$
_i5
     RDKit          3D

 43 45  0  0  0  0  0  0  0  0999 V2000
    0.8044   -1.6879    0.5205 N   0  0  0  0  0  0  0  0  0  0  0  0
    0.3621   -0.4770    0.0384 C   0  0  0  0  0  0  0  0  0  0  0  0
    1.3467    0.3849   -0.3542 N   0  0  0  0  0  0  0  0  0  0  0  0
    2.4288    0.7619    0.5465 C   0  0  0  0  0  0  0  0  0  0  0  0
    3.3856    1.7337   -0.1453 C   0  0  0  0  0  0  0  0  0  0  0  0
    4.1595    1.0786   -1.2919 C   0  0  0  0  0  0  0  0  0  0  0  0
    5.1376    2.0533   -1.9293 C   0  0  0  0  0  0  0  0  0  0  0  0
   -0.8847   -0.1131   -0.0860 N   0  0  0  0  0  0  0  0  0  0  0  0
   -1.8862   -0.9936    0.3104 C   0  0  0  0  0  0  0  0  0  0  0  0
   -3.1535   -0.7380    0.2486 N   0  0  0  0  0  0  0  0  0  0  0  0
   -3.5414    0.5388   -0.1903 C   0  0  0  0  0  0  0  0  0  0  0  0
   -3.9012    0.7219   -1.5283 C   0  0  0  0  0  0  0  0  0  0  0  0
   -4.3130    1.9759   -1.9747 C   0  0  0  0  0  0  0  0  0  0  0  0
   -4.7418    2.1967   -3.6273 Cl  0  0  0  0  0  0  0  0  0  0  0  0
   -4.3842    3.0567   -1.0952 C   0  0  0  0  0  0  0  0  0  0  0  0
   -4.0434    2.8840    0.2471 C   0  0  0  0  0  0  0  0  0  0  0  0
   -3.6289    1.6285    0.6937 C   0  0  0  0  0  0  0  0  0  0  0  0
   -3.3014    1.4472    2.0121 O   0  0  0  0  0  0  0  0  0  0  0  0
   -1.4694   -2.2864    0.7914 C   0  0  0  0  0  0  0  0  0  0  0  0
   -2.1112   -3.4493    1.2368 C   0  0  0  0  0  0  0  0  0  0  0  0
   -1.2390   -4.4188    1.5624 N   0  0  0  0  0  0  0  0  0  0  0  0
   -0.0274   -3.8570    1.3227 N   0  0  0  0  0  0  0  0  0  0  0  0
    1.1633   -4.6277    1.5725 C   0  0  0  0  0  0  0  0  0  0  0  0
   -0.1368   -2.5813    0.8699 C   0  0  0  0  0  0  0  0  0  0  0  0
    1.7741   -1.9216    0.3596 H   0  0  0  0  0  0  0  0  0  0  0  0
    0.8896    1.2149   -0.7305 H   0  0  0  0  0  0  0  0  0  0  0  0
    2.0040    1.2469    1.4331 H   0  0  0  0  0  0  0  0  0  0  0  0
    2.9830   -0.1208    0.8840 H   0  0  0  0  0  0  0  0  0  0  0  0
    4.0977    2.1098    0.5995 H   0  0  0  0  0  0  0  0  0  0  0  0
    2.8295    2.6006   -0.5233 H   0  0  0  0  0  0  0  0  0  0  0  0
    4.7118    0.2086   -0.9182 H   0  0  0  0  0  0  0  0  0  0  0  0
    3.4666    0.7178   -2.0603 H   0  0  0  0  0  0  0  0  0  0  0  0
    5.6806    1.5660   -2.7451 H   0  0  0  0  0  0  0  0  0  0  0  0
    5.8707    2.4084   -1.1980 H   0  0  0  0  0  0  0  0  0  0  0  0
    4.6136    2.9218   -2.3408 H   0  0  0  0  0  0  0  0  0  0  0  0
   -3.8518   -0.1200   -2.2121 H   0  0  0  0  0  0  0  0  0  0  0  0
   -4.7078    4.0318   -1.4494 H   0  0  0  0  0  0  0  0  0  0  0  0
   -4.1069    3.7295    0.9245 H   0  0  0  0  0  0  0  0  0  0  0  0
   -3.4675    2.2701    2.4960 H   0  0  0  0  0  0  0  0  0  0  0  0
   -3.1733   -3.6355    1.3331 H   0  0  0  0  0  0  0  0  0  0  0  0
    2.0484   -4.0110    1.4026 H   0  0  0  0  0  0  0  0  0  0  0  0
    1.1686   -5.4821    0.8911 H   0  0  0  0  0  0  0  0  0  0  0  0
    1.1446   -4.9670    2.6113 H   0  0  0  0  0  0  0  0  0  0  0  0
  1  2  1  0
  2  3  1  0
  3  4  1  0
  4  5  1  0
  5  6  1  0
  6  7  1  0
  2  8  2  0
  8  9  1  0
  9 10  2  3
 10 11  1  0
 11 12  2  0
 12 13  1  0
 13 14  1  0
 13 15  2  0
 15 16  1  0
 16 17  2  0
 17 18  1  0
  9 19  1  0
 19 20  1  0
 20 21  2  0
 21 22  1  0
 22 23  1  0
 22 24  1  0
 24  1  1  0
 17 11  1  0
 24 19  2  0
  1 25  1  0
  3 26  1  0
  4 27  1  0
  4 28  1  0
  5 29  1  0
  5 30  1  0
  6 31  1  0
  6 32  1  0
  7 33  1  0
  7 34  1  0
  7 35  1  0
 12 36  1  0
 15 37  1  0
 16 38  1  0
 18 39  1  0
 20 40  1  0
 23 41  1  0
 23 42  1  0
 23 43  1  0
M  END
>  <ScrubInfo>  (6) 
{"isomerGroup": 0, "isomerId": 5, "confId": 0, "nr_conformers:": 1, "nr_isomers:": 9}

$$$$
_i6
     RDKit          3D

 43 45  0  0  0  0  0  0  0  0999 V2000
    0.1853    3.9965    0.3130 N   0  0  0  0  0  0  0  0  0  0  0  0
   -0.9579    3.2040    0.3133 C   0  0  0  0  0  0  0  0  0  0  0  0
   -0.6881    1.8976    0.4438 C   0  0  0  0  0  0  0  0  0  0  0  0
   -1.4176    0.6273    0.4853 C   0  0  0  0  0  0  0  0  0  0  0  0
   -2.7934    0.6425    0.4131 N   0  0  0  0  0  0  0  0  0  0  0  0
   -3.7299   -0.4114    0.4230 C   0  0  0  0  0  0  0  0  0  0  0  0
   -3.4110   -1.7672    0.5241 C   0  0  0  0  0  0  0  0  0  0  0  0
   -4.4225   -2.7324    0.5259 C   0  0  0  0  0  0  0  0  0  0  0  0
   -4.0142   -4.4011    0.6511 Cl  0  0  0  0  0  0  0  0  0  0  0  0
   -5.7648   -2.3654    0.4277 C   0  0  0  0  0  0  0  0  0  0  0  0
   -6.1076   -1.0195    0.3264 C   0  0  0  0  0  0  0  0  0  0  0  0
   -5.0939   -0.0630    0.3253 C   0  0  0  0  0  0  0  0  0  0  0  0
   -5.4012    1.2740    0.2266 O   0  0  0  0  0  0  0  0  0  0  0  0
   -0.7043   -0.4560    0.5884 N   0  0  0  0  0  0  0  0  0  0  0  0
    0.6689   -0.3822    0.6415 C   0  0  0  0  0  0  0  0  0  0  0  0
    1.2449   -1.5311    0.6507 N   0  0  0  0  0  0  0  0  0  0  0  0
    2.7014   -1.6040    0.7204 C   0  0  0  0  0  0  0  0  0  0  0  0
    3.2873   -1.6136   -0.6906 C   0  0  0  0  0  0  0  0  0  0  0  0
    4.8097   -1.7385   -0.6603 C   0  0  0  0  0  0  0  0  0  0  0  0
    5.3959   -1.7485   -2.0630 C   0  0  0  0  0  0  0  0  0  0  0  0
    1.4298    0.7638    0.6783 N   0  0  0  0  0  0  0  0  0  0  0  0
    0.7818    1.8719    0.5935 C   0  0  0  0  0  0  0  0  0  0  0  0
    1.2713    3.1785    0.6080 N   0  0  0  0  0  0  0  0  0  0  0  0
    2.5693    3.4925    0.0410 C   0  0  0  0  0  0  0  0  0  0  0  0
    0.0973    4.8438    0.8792 H   0  0  0  0  0  0  0  0  0  0  0  0
   -1.9219    3.6811    0.2149 H   0  0  0  0  0  0  0  0  0  0  0  0
   -3.2676    1.5368    0.3250 H   0  0  0  0  0  0  0  0  0  0  0  0
   -2.3800   -2.0981    0.6023 H   0  0  0  0  0  0  0  0  0  0  0  0
   -6.5421   -3.1250    0.4302 H   0  0  0  0  0  0  0  0  0  0  0  0
   -7.1535   -0.7408    0.2506 H   0  0  0  0  0  0  0  0  0  0  0  0
   -6.3685    1.3577    0.1631 H   0  0  0  0  0  0  0  0  0  0  0  0
    2.9634   -2.5399    1.2282 H   0  0  0  0  0  0  0  0  0  0  0  0
    3.1411   -0.8051    1.3295 H   0  0  0  0  0  0  0  0  0  0  0  0
    2.8576   -2.4476   -1.2596 H   0  0  0  0  0  0  0  0  0  0  0  0
    3.0041   -0.6954   -1.2195 H   0  0  0  0  0  0  0  0  0  0  0  0
    5.2405   -0.9026   -0.0968 H   0  0  0  0  0  0  0  0  0  0  0  0
    5.0978   -2.6613   -0.1435 H   0  0  0  0  0  0  0  0  0  0  0  0
    6.4857   -1.8385   -2.0178 H   0  0  0  0  0  0  0  0  0  0  0  0
    5.1533   -0.8236   -2.5961 H   0  0  0  0  0  0  0  0  0  0  0  0
    5.0090   -2.5918   -2.6439 H   0  0  0  0  0  0  0  0  0  0  0  0
    2.8215    4.5417    0.2259 H   0  0  0  0  0  0  0  0  0  0  0  0
    3.3492    2.8756    0.4988 H   0  0  0  0  0  0  0  0  0  0  0  0
    2.5739    3.3185   -1.0401 H   0  0  0  0  0  0  0  0  0  0  0  0
  1  2  1  0
  2  3  2  0
  3  4  1  0
  4  5  1  0
  5  6  1  0
  6  7  2  0
  7  8  1  0
  8  9  1  0
  8 10  2  0
 10 11  1  0
 11 12  2  0
 12 13  1  0
  4 14  2  0
 14 15  1  0
 15 16  2  3
 16 17  1  0
 17 18  1  0
 18 19  1  0
 19 20  1  0
 15 21  1  0
 21 22  2  0
 22 23  1  0
 23 24  1  0
 23  1  1  0
 22  3  1  0
 12  6  1  0
  1 25  1  0
  2 26  1  0
  5 27  1  0
  7 28  1  0
 10 29  1  0
 11 30  1  0
 13 31  1  0
 17 32  1  0
 17 33  1  0
 18 34  1  0
 18 35  1  0
 19 36  1  0
 19 37  1  0
 20 38  1  0
 20 39  1  0
 20 40  1  0
 24 41  1  0
 24 42  1  0
 24 43  1  0
M  END
>  <ScrubInfo>  (7) 
{"isomerGroup": 0, "isomerId": 6, "confId": 0, "nr_conformers:": 1, "nr_isomers:": 9}

$$$$
_i7
     RDKit          3D

 43 45  0  0  0  0  0  0  0  0999 V2000
   -1.2956    1.5476   -2.1463 N   0  0  0  0  0  0  0  0  0  0  0  0
   -1.9948    0.6762   -1.3194 C   0  0  0  0  0  0  0  0  0  0  0  0
   -1.2021   -0.1257   -0.5939 C   0  0  0  0  0  0  0  0  0  0  0  0
   -1.2892   -1.1733    0.4434 C   0  0  0  0  0  0  0  0  0  0  0  0
   -2.3431   -1.7361    0.9613 N   0  0  0  0  0  0  0  0  0  0  0  0
   -3.6286   -1.4096    0.5041 C   0  0  0  0  0  0  0  0  0  0  0  0
   -4.1725   -2.0318   -0.6203 C   0  0  0  0  0  0  0  0  0  0  0  0
   -5.4593   -1.6939   -1.0419 C   0  0  0  0  0  0  0  0  0  0  0  0
   -6.1177   -2.4421   -2.4449 Cl  0  0  0  0  0  0  0  0  0  0  0  0
   -6.2169   -0.7508   -0.3432 C   0  0  0  0  0  0  0  0  0  0  0  0
   -5.6901   -0.1455    0.7975 C   0  0  0  0  0  0  0  0  0  0  0  0
   -4.4102   -0.4888    1.2149 C   0  0  0  0  0  0  0  0  0  0  0  0
   -3.9152    0.0904    2.3507 O   0  0  0  0  0  0  0  0  0  0  0  0
   -0.0552   -1.5626    0.8880 N   0  0  0  0  0  0  0  0  0  0  0  0
    1.1630   -1.1213    0.4538 C   0  0  0  0  0  0  0  0  0  0  0  0
    2.2214   -1.6053    1.0145 N   0  0  0  0  0  0  0  0  0  0  0  0
    3.5346   -1.1537    0.5513 C   0  0  0  0  0  0  0  0  0  0  0  0
    3.9739    0.0697    1.3539 C   0  0  0  0  0  0  0  0  0  0  0  0
    5.3637    0.5429    0.9309 C   0  0  0  0  0  0  0  0  0  0  0  0
    5.8040    1.7605    1.7279 C   0  0  0  0  0  0  0  0  0  0  0  0
    1.2721   -0.1853   -0.5508 N   0  0  0  0  0  0  0  0  0  0  0  0
    0.1731    0.2793   -1.0579 C   0  0  0  0  0  0  0  0  0  0  0  0
    0.0506    1.2214   -2.0815 N   0  0  0  0  0  0  0  0  0  0  0  0
    1.0396    2.2691   -2.2537 C   0  0  0  0  0  0  0  0  0  0  0  0
   -1.6970    1.6349   -3.0829 H   0  0  0  0  0  0  0  0  0  0  0  0
   -3.0733    0.7273   -1.3274 H   0  0  0  0  0  0  0  0  0  0  0  0
   -3.5921   -2.7741   -1.1600 H   0  0  0  0  0  0  0  0  0  0  0  0
   -7.2197   -0.4934   -0.6747 H   0  0  0  0  0  0  0  0  0  0  0  0
   -6.2736    0.5759    1.3620 H   0  0  0  0  0  0  0  0  0  0  0  0
   -3.0823   -0.3888    2.5337 H   0  0  0  0  0  0  0  0  0  0  0  0
   -0.0203   -2.2760    1.6008 H   0  0  0  0  0  0  0  0  0  0  0  0
    3.5611   -0.9554   -0.5269 H   0  0  0  0  0  0  0  0  0  0  0  0
    4.2444   -1.9725    0.7189 H   0  0  0  0  0  0  0  0  0  0  0  0
    3.2516    0.8842    1.2201 H   0  0  0  0  0  0  0  0  0  0  0  0
    3.9745   -0.1753    2.4234 H   0  0  0  0  0  0  0  0  0  0  0  0
    6.0919   -0.2637    1.0747 H   0  0  0  0  0  0  0  0  0  0  0  0
    5.3626    0.7933   -0.1363 H   0  0  0  0  0  0  0  0  0  0  0  0
    6.8005    2.0820    1.4092 H   0  0  0  0  0  0  0  0  0  0  0  0
    5.8460    1.5346    2.7982 H   0  0  0  0  0  0  0  0  0  0  0  0
    5.1136    2.5970    1.5798 H   0  0  0  0  0  0  0  0  0  0  0  0
    0.8235    2.8523   -3.1547 H   0  0  0  0  0  0  0  0  0  0  0  0
    1.0425    2.9463   -1.3931 H   0  0  0  0  0  0  0  0  0  0  0  0
    2.0405    1.8403   -2.3660 H   0  0  0  0  0  0  0  0  0  0  0  0
  1  2  1  0
  2  3  2  0
  3  4  1  0
  4  5  2  3
  5  6  1  0
  6  7  2  0
  7  8  1  0
  8  9  1  0
  8 10  2  0
 10 11  1  0
 11 12  2  0
 12 13  1  0
  4 14  1  0
 14 15  1  0
 15 16  2  3
 16 17  1  0
 17 18  1  0
 18 19  1  0
 19 20  1  0
 15 21  1  0
 21 22  2  0
 22 23  1  0
 23 24  1  0
 23  1  1  0
 22  3  1  0
 12  6  1  0
  1 25  1  0
  2 26  1  0
  7 27  1  0
 10 28  1  0
 11 29  1  0
 13 30  1  0
 14 31  1  0
 17 32  1  0
 17 33  1  0
 18 34  1  0
 18 35  1  0
 19 36  1  0
 19 37  1  0
 20 38  1  0
 20 39  1  0
 20 40  1  0
 24 41  1  0
 24 42  1  0
 24 43  1  0
M  END
>  <ScrubInfo>  (8) 
{"isomerGroup": 0, "isomerId": 7, "confId": 0, "nr_conformers:": 1, "nr_isomers:": 9}

$$$$
_i8
     RDKit          3D

 43 45  0  0  0  0  0  0  0  0999 V2000
    0.6417    1.9462   -0.8872 N   0  0  0  0  0  0  0  0  0  0  0  0
    1.3315    0.8469   -0.4186 C   0  0  0  0  0  0  0  0  0  0  0  0
    2.6210    0.8644   -0.4799 N   0  0  0  0  0  0  0  0  0  0  0  0
    3.3488   -0.3011    0.0175 C   0  0  0  0  0  0  0  0  0  0  0  0
    4.8441   -0.0402   -0.1635 C   0  0  0  0  0  0  0  0  0  0  0  0
    5.7199   -1.2371    0.2100 C   0  0  0  0  0  0  0  0  0  0  0  0
    5.6593   -1.5958    1.6867 C   0  0  0  0  0  0  0  0  0  0  0  0
    0.5072   -0.1492    0.0673 N   0  0  0  0  0  0  0  0  0  0  0  0
   -0.8696   -0.2328    0.1465 C   0  0  0  0  0  0  0  0  0  0  0  0
   -1.4368   -1.2936    0.6380 N   0  0  0  0  0  0  0  0  0  0  0  0
   -2.8276   -1.4476    0.6763 C   0  0  0  0  0  0  0  0  0  0  0  0
   -3.4985   -1.2609    1.8873 C   0  0  0  0  0  0  0  0  0  0  0  0
   -4.8767   -1.4561    1.9585 C   0  0  0  0  0  0  0  0  0  0  0  0
   -5.6975   -1.2106    3.4510 Cl  0  0  0  0  0  0  0  0  0  0  0  0
   -5.5988   -1.8508    0.8317 C   0  0  0  0  0  0  0  0  0  0  0  0
   -4.9382   -2.0605   -0.3797 C   0  0  0  0  0  0  0  0  0  0  0  0
   -3.5589   -1.8656   -0.4501 C   0  0  0  0  0  0  0  0  0  0  0  0
   -2.8989   -2.0640   -1.6336 O   0  0  0  0  0  0  0  0  0  0  0  0
   -1.4988    0.9769   -0.3565 C   0  0  0  0  0  0  0  0  0  0  0  0
   -2.8023    1.4897   -0.4890 C   0  0  0  0  0  0  0  0  0  0  0  0
   -2.8303    2.7173   -1.0301 N   0  0  0  0  0  0  0  0  0  0  0  0
   -1.5270    2.9996   -1.2509 N   0  0  0  0  0  0  0  0  0  0  0  0
   -1.1687    4.2697   -1.8298 C   0  0  0  0  0  0  0  0  0  0  0  0
   -0.7065    1.9922   -0.8476 C   0  0  0  0  0  0  0  0  0  0  0  0
    1.2339    2.6876   -1.2419 H   0  0  0  0  0  0  0  0  0  0  0  0
    3.1239   -0.4597    1.0779 H   0  0  0  0  0  0  0  0  0  0  0  0
    3.0646   -1.1978   -0.5458 H   0  0  0  0  0  0  0  0  0  0  0  0
    5.1404    0.8360    0.4269 H   0  0  0  0  0  0  0  0  0  0  0  0
    5.0385    0.2170   -1.2127 H   0  0  0  0  0  0  0  0  0  0  0  0
    5.4347   -2.1096   -0.3891 H   0  0  0  0  0  0  0  0  0  0  0  0
    6.7591   -1.0012   -0.0488 H   0  0  0  0  0  0  0  0  0  0  0  0
    5.9089   -0.7325    2.3116 H   0  0  0  0  0  0  0  0  0  0  0  0
    6.3757   -2.3932    1.9090 H   0  0  0  0  0  0  0  0  0  0  0  0
    4.6661   -1.9548    1.9719 H   0  0  0  0  0  0  0  0  0  0  0  0
    0.9563   -0.9858    0.4034 H   0  0  0  0  0  0  0  0  0  0  0  0
   -2.9371   -0.9669    2.7694 H   0  0  0  0  0  0  0  0  0  0  0  0
   -6.6737   -2.0012    0.8939 H   0  0  0  0  0  0  0  0  0  0  0  0
   -5.5089   -2.3723   -1.2491 H   0  0  0  0  0  0  0  0  0  0  0  0
   -3.5251   -2.3895   -2.2993 H   0  0  0  0  0  0  0  0  0  0  0  0
   -3.7462    1.0407   -0.2152 H   0  0  0  0  0  0  0  0  0  0  0  0
   -0.2055    4.1820   -2.3374 H   0  0  0  0  0  0  0  0  0  0  0  0
   -1.1096    5.0057   -1.0245 H   0  0  0  0  0  0  0  0  0  0  0  0
   -1.9344    4.5586   -2.5546 H   0  0  0  0  0  0  0  0  0  0  0  0
  1  2  1  0
  2  3  2  3
  3  4  1  0
  4  5  1  0
  5  6  1  0
  6  7  1  0
  2  8  1  0
  8  9  1  0
  9 10  2  3
 10 11  1  0
 11 12  2  0
 12 13  1  0
 13 14  1  0
 13 15  2  0
 15 16  1  0
 16 17  2  0
 17 18  1  0
  9 19  1  0
 19 20  1  0
 20 21  2  0
 21 22  1  0
 22 23  1  0
 22 24  1  0
 24  1  1  0
 17 11  1  0
 24 19  2  0
  1 25  1  0
  4 26  1  0
  4 27  1  0
  5 28  1  0
  5 29  1  0
  6 30  1  0
  6 31  1  0
  7 32  1  0
  7 33  1  0
  7 34  1  0
  8 35  1  0
 12 36  1  0
 15 37  1  0
 16 38  1  0
 18 39  1  0
 20 40  1  0
 23 41  1  0
 23 42  1  0
 23 43  1  0
M  END
>  <ScrubInfo>  (9) 
{"isomerGroup": 0, "isomerId": 8, "confId": 0, "nr_conformers:": 1, "nr_isomers:": 9}

$$$$
