REMARK SMILES CCCCNc1nc(Nc2cc(Cl)ccc2O)c2cnn(C)c2n1
REMARK SMILES IDX 6 1 7 2 8 3 18 4 19 5 20 6 21 7 22 8 23 9 24 10 5 11 4 13
REMARK SMILES IDX 3 14 2 15 1 16 9 17 10 19 11 20 16 21 12 22 15 23 14 24
REMARK SMILES IDX 13 25 17 26
REMARK H PARENT 5 12 9 18 17 27
ROOT
ATOM      1  C   UNL     1       1.359   0.495   0.287  1.00  0.00     0.226 A 
ATOM      2  N   UNL     1       0.424  -0.337  -0.214  1.00  0.00    -0.195 NA
ATOM      3  C   UNL     1      -0.785   0.145  -0.585  1.00  0.00     0.147 A 
ATOM      4  C   UNL     1      -1.015   1.515  -0.451  1.00  0.00     0.082 A 
ATOM      5  C   UNL     1      -2.037   2.449  -0.714  1.00  0.00     0.149 A 
ATOM      6  N   UNL     1      -1.700   3.697  -0.368  1.00  0.00    -0.179 NA
ATOM      7  N   UNL     1      -0.441   3.557   0.108  1.00  0.00    -0.250 N 
ATOM      8  C   UNL     1       0.274   4.719   0.573  1.00  0.00     0.176 C 
ATOM      9  C   UNL     1       0.014   2.267   0.078  1.00  0.00     0.165 A 
ATOM     10  N   UNL     1       1.213   1.813   0.472  1.00  0.00    -0.193 NA
ENDROOT
BRANCH   1  11
ATOM     11  N   UNL     1       2.599  -0.010   0.659  1.00  0.00    -0.354 N 
ATOM     12  H   UNL     1       3.025   0.698   1.247  1.00  0.00     0.163 HD
BRANCH  11  13
ATOM     13  C   UNL     1       2.577  -1.352   1.212  1.00  0.00     0.116 C 
BRANCH  13  14
ATOM     14  C   UNL     1       3.981  -1.770   1.660  1.00  0.00     0.021 C 
BRANCH  14  15
ATOM     15  C   UNL     1       4.898  -2.249   0.529  1.00  0.00    -0.002 C 
ATOM     16  C   UNL     1       5.292  -1.167  -0.463  1.00  0.00     0.004 C 
ENDBRANCH  14  15
ENDBRANCH  13  14
ENDBRANCH  11  13
ENDBRANCH   1  11
BRANCH   3  17
ATOM     17  N   UNL     1      -1.703  -0.781  -1.116  1.00  0.00    -0.336 N 
ATOM     18  H   UNL     1      -1.256  -1.691  -0.986  1.00  0.00     0.168 HD
BRANCH  17  19
ATOM     19  C   UNL     1      -3.075  -0.874  -0.773  1.00  0.00     0.084 A 
ATOM     20  C   UNL     1      -3.561  -0.579   0.505  1.00  0.00     0.050 A 
ATOM     21  C   UNL     1      -3.964  -1.422  -1.712  1.00  0.00     0.139 A 
ATOM     22  C   UNL     1      -4.911  -0.783   0.803  1.00  0.00     0.043 A 
ATOM     23  C   UNL     1      -5.306  -1.632  -1.418  1.00  0.00     0.050 A 
ATOM     24  C   UNL     1      -5.785  -1.304  -0.151  1.00  0.00     0.024 A 
ATOM     25  Cl  UNL     1      -5.499  -0.401   2.376  1.00  0.00    -0.084 Cl
BRANCH  21  26
ATOM     26  O   UNL     1      -3.520  -1.745  -2.965  1.00  0.00    -0.506 OA
ATOM     27  H   UNL     1      -2.607  -1.403  -3.019  1.00  0.00     0.293 HD
ENDBRANCH  21  26
ENDBRANCH  17  19
ENDBRANCH   3  17
TORSDOF 7
