REMARK SMILES CCOCCCNc1nc(Nc2ccccc2)c2cnn(C)c2n1
REMARK SMILES IDX 5 1 4 2 3 3 2 4 1 5 6 6 7 7 8 9 9 10 24 11 10 12 23 13 18 14
REMARK SMILES IDX 21 15 19 16 20 17 22 18 11 19 12 21 13 22 17 23 14 24 16 25
REMARK SMILES IDX 15 26
REMARK H PARENT 7 8 11 20
ROOT
ATOM      1  C   UNL     1       3.377   0.525  -1.815  1.00  0.00     0.050 C 
ENDROOT
BRANCH   1   2
ATOM      2  C   UNL     1       4.311   0.534  -0.610  1.00  0.00     0.162 C 
BRANCH   2   3
ATOM      3  O   UNL     1       5.643   0.735  -1.082  1.00  0.00    -0.382 OA
BRANCH   3   4
ATOM      4  C   UNL     1       6.627   0.685  -0.051  1.00  0.00     0.156 C 
ATOM      5  C   UNL     1       6.682   1.984   0.732  1.00  0.00     0.035 C 
ENDBRANCH   3   4
ENDBRANCH   2   3
ENDBRANCH   1   2
BRANCH   1   6
ATOM      6  C   UNL     1       1.906   0.413  -1.423  1.00  0.00     0.118 C 
BRANCH   6   7
ATOM      7  N   UNL     1       1.594  -0.930  -0.966  1.00  0.00    -0.354 N 
ATOM      8  H   UNL     1       2.186  -1.315  -0.239  1.00  0.00     0.163 HD
BRANCH   7   9
ATOM      9  C   UNL     1       0.288  -1.109  -0.522  1.00  0.00     0.226 A 
ATOM     10  N   UNL     1      -0.712  -0.410  -1.092  1.00  0.00    -0.195 NA
ATOM     11  N   UNL     1       0.156  -1.992   0.477  1.00  0.00    -0.193 NA
ATOM     12  C   UNL     1      -1.988  -0.568  -0.661  1.00  0.00     0.147 A 
ATOM     13  C   UNL     1      -1.119  -2.157   0.860  1.00  0.00     0.165 A 
ATOM     14  C   UNL     1      -2.222  -1.502   0.350  1.00  0.00     0.082 A 
ATOM     15  N   UNL     1      -1.597  -3.009   1.818  1.00  0.00    -0.250 N 
ATOM     16  C   UNL     1      -3.313  -2.050   1.056  1.00  0.00     0.149 A 
ATOM     17  N   UNL     1      -2.941  -2.957   1.967  1.00  0.00    -0.179 NA
ATOM     18  C   UNL     1      -0.830  -3.919   2.630  1.00  0.00     0.176 C 
BRANCH  12  19
ATOM     19  N   UNL     1      -2.976   0.179  -1.318  1.00  0.00    -0.339 N 
ATOM     20  H   UNL     1      -2.522   0.704  -2.061  1.00  0.00     0.168 HD
BRANCH  19  21
ATOM     21  C   UNL     1      -4.059   0.895  -0.771  1.00  0.00     0.040 A 
ATOM     22  C   UNL     1      -5.092   1.293  -1.631  1.00  0.00     0.026 A 
ATOM     23  C   UNL     1      -4.147   1.248   0.580  1.00  0.00     0.026 A 
ATOM     24  C   UNL     1      -6.193   2.008  -1.151  1.00  0.00     0.002 A 
ATOM     25  C   UNL     1      -5.247   1.963   1.064  1.00  0.00     0.002 A 
ATOM     26  C   UNL     1      -6.270   2.341   0.198  1.00  0.00     0.000 A 
ENDBRANCH  19  21
ENDBRANCH  12  19
ENDBRANCH   7   9
ENDBRANCH   6   7
ENDBRANCH   1   6
TORSDOF 8
