_i0
     RDKit          3D

 46 48  0  0  0  0  0  0  0  0999 V2000
    6.6823    1.9843    0.7324 C   0  0  0  0  0  0  0  0  0  0  0  0
    6.6265    0.6849   -0.0509 C   0  0  0  0  0  0  0  0  0  0  0  0
    5.6430    0.7350   -1.0823 O   0  0  0  0  0  0  0  0  0  0  0  0
    4.3111    0.5339   -0.6095 C   0  0  0  0  0  0  0  0  0  0  0  0
    3.3770    0.5254   -1.8147 C   0  0  0  0  0  0  0  0  0  0  0  0
    1.9056    0.4132   -1.4231 C   0  0  0  0  0  0  0  0  0  0  0  0
    1.5943   -0.9303   -0.9661 N   0  0  0  0  0  0  0  0  0  0  0  0
    0.2884   -1.1092   -0.5216 C   0  0  0  0  0  0  0  0  0  0  0  0
   -0.7119   -0.4102   -1.0918 N   0  0  0  0  0  0  0  0  0  0  0  0
   -1.9884   -0.5675   -0.6606 C   0  0  0  0  0  0  0  0  0  0  0  0
   -2.9757    0.1789   -1.3176 N   0  0  0  0  0  0  0  0  0  0  0  0
   -4.0590    0.8948   -0.7711 C   0  0  0  0  0  0  0  0  0  0  0  0
   -5.0924    1.2932   -1.6307 C   0  0  0  0  0  0  0  0  0  0  0  0
   -6.1928    2.0077   -1.1509 C   0  0  0  0  0  0  0  0  0  0  0  0
   -6.2704    2.3407    0.1984 C   0  0  0  0  0  0  0  0  0  0  0  0
   -5.2466    1.9632    1.0636 C   0  0  0  0  0  0  0  0  0  0  0  0
   -4.1468    1.2478    0.5804 C   0  0  0  0  0  0  0  0  0  0  0  0
   -2.2223   -1.5017    0.3503 C   0  0  0  0  0  0  0  0  0  0  0  0
   -3.3134   -2.0497    1.0558 C   0  0  0  0  0  0  0  0  0  0  0  0
   -2.9411   -2.9572    1.9668 N   0  0  0  0  0  0  0  0  0  0  0  0
   -1.5970   -3.0089    1.8181 N   0  0  0  0  0  0  0  0  0  0  0  0
   -0.8297   -3.9189    2.6304 C   0  0  0  0  0  0  0  0  0  0  0  0
   -1.1192   -2.1572    0.8598 C   0  0  0  0  0  0  0  0  0  0  0  0
    0.1562   -1.9915    0.4774 N   0  0  0  0  0  0  0  0  0  0  0  0
    7.5216    1.9750    1.4338 H   0  0  0  0  0  0  0  0  0  0  0  0
    5.7632    2.1448    1.3036 H   0  0  0  0  0  0  0  0  0  0  0  0
    6.7947    2.8380    0.0562 H   0  0  0  0  0  0  0  0  0  0  0  0
    7.5924    0.5270   -0.5418 H   0  0  0  0  0  0  0  0  0  0  0  0
    6.4519   -0.1721    0.6093 H   0  0  0  0  0  0  0  0  0  0  0  0
    4.2561   -0.4197   -0.0736 H   0  0  0  0  0  0  0  0  0  0  0  0
    4.0334    1.3441    0.0721 H   0  0  0  0  0  0  0  0  0  0  0  0
    3.6614   -0.2862   -2.4963 H   0  0  0  0  0  0  0  0  0  0  0  0
    3.5270    1.4556   -2.3777 H   0  0  0  0  0  0  0  0  0  0  0  0
    1.6685    1.1552   -0.6502 H   0  0  0  0  0  0  0  0  0  0  0  0
    1.3063    0.6497   -2.3113 H   0  0  0  0  0  0  0  0  0  0  0  0
    2.1856   -1.3147   -0.2386 H   0  0  0  0  0  0  0  0  0  0  0  0
   -2.5218    0.7040   -2.0613 H   0  0  0  0  0  0  0  0  0  0  0  0
   -5.0516    1.0322   -2.6858 H   0  0  0  0  0  0  0  0  0  0  0  0
   -6.9884    2.3003   -1.8311 H   0  0  0  0  0  0  0  0  0  0  0  0
   -7.1253    2.8964    0.5749 H   0  0  0  0  0  0  0  0  0  0  0  0
   -5.2988    2.2295    2.1163 H   0  0  0  0  0  0  0  0  0  0  0  0
   -3.3529    0.9934    1.2771 H   0  0  0  0  0  0  0  0  0  0  0  0
   -4.3659   -1.8212    0.9429 H   0  0  0  0  0  0  0  0  0  0  0  0
   -1.0133   -3.6809    3.6812 H   0  0  0  0  0  0  0  0  0  0  0  0
    0.2345   -3.8132    2.4085 H   0  0  0  0  0  0  0  0  0  0  0  0
   -1.1562   -4.9377    2.4066 H   0  0  0  0  0  0  0  0  0  0  0  0
  1  2  1  0
  2  3  1  0
  3  4  1  0
  4  5  1  0
  5  6  1  0
  6  7  1  0
  7  8  1  0
  8  9  2  0
  9 10  1  0
 10 11  1  0
 11 12  1  0
 12 13  2  0
 13 14  1  0
 14 15  2  0
 15 16  1  0
 16 17  2  0
 10 18  2  0
 18 19  1  0
 19 20  2  0
 20 21  1  0
 21 22  1  0
 21 23  1  0
 23 24  2  0
 24  8  1  0
 17 12  1  0
 23 18  1  0
  1 25  1  0
  1 26  1  0
  1 27  1  0
  2 28  1  0
  2 29  1  0
  4 30  1  0
  4 31  1  0
  5 32  1  0
  5 33  1  0
  6 34  1  0
  6 35  1  0
  7 36  1  0
 11 37  1  0
 13 38  1  0
 14 39  1  0
 15 40  1  0
 16 41  1  0
 17 42  1  0
 19 43  1  0
 22 44  1  0
 22 45  1  0
 22 46  1  0
M  END
>  <ScrubInfo>  (1) 
{"isomerGroup": 0, "isomerId": 0, "confId": 0, "nr_conformers:": 1, "nr_isomers:": 9}

$$$$
_i1
     RDKit          3D

 46 48  0  0  0  0  0  0  0  0999 V2000
   -1.4987    0.4792   -0.4582 N   0  0  0  0  0  0  0  0  0  0  0  0
   -2.7183   -0.1691   -0.4788 C   0  0  0  0  0  0  0  0  0  0  0  0
   -3.9258    0.5045   -0.4735 N   0  0  0  0  0  0  0  0  0  0  0  0
   -4.2436    1.7426    0.1198 C   0  0  0  0  0  0  0  0  0  0  0  0
   -3.4548    2.3583    1.0992 C   0  0  0  0  0  0  0  0  0  0  0  0
   -3.7980    3.6112    1.6175 C   0  0  0  0  0  0  0  0  0  0  0  0
   -4.9325    4.2724    1.1556 C   0  0  0  0  0  0  0  0  0  0  0  0
   -5.7246    3.6808    0.1765 C   0  0  0  0  0  0  0  0  0  0  0  0
   -5.3796    2.4280   -0.3380 C   0  0  0  0  0  0  0  0  0  0  0  0
   -2.6378   -1.5038   -0.5505 C   0  0  0  0  0  0  0  0  0  0  0  0
   -3.5527   -2.6502   -0.5733 C   0  0  0  0  0  0  0  0  0  0  0  0
   -2.9339   -3.8032   -0.6021 N   0  0  0  0  0  0  0  0  0  0  0  0
   -1.5655   -3.4901   -0.6491 N   0  0  0  0  0  0  0  0  0  0  0  0
   -0.5999   -4.5268   -0.3755 C   0  0  0  0  0  0  0  0  0  0  0  0
   -1.2975   -2.1323   -0.5750 C   0  0  0  0  0  0  0  0  0  0  0  0
   -0.1712   -1.5062   -0.5301 N   0  0  0  0  0  0  0  0  0  0  0  0
   -0.2735   -0.1328   -0.4893 C   0  0  0  0  0  0  0  0  0  0  0  0
    0.7874    0.6056   -0.4908 N   0  0  0  0  0  0  0  0  0  0  0  0
    2.0785   -0.0888   -0.5195 C   0  0  0  0  0  0  0  0  0  0  0  0
    3.1828    0.9681   -0.5140 C   0  0  0  0  0  0  0  0  0  0  0  0
    4.5677    0.3516   -0.6736 C   0  0  0  0  0  0  0  0  0  0  0  0
    4.8475   -0.4917    0.4421 O   0  0  0  0  0  0  0  0  0  0  0  0
    6.0988   -1.1671    0.3430 C   0  0  0  0  0  0  0  0  0  0  0  0
    7.2561   -0.2583    0.7169 C   0  0  0  0  0  0  0  0  0  0  0  0
   -1.5032    1.4860   -0.5300 H   0  0  0  0  0  0  0  0  0  0  0  0
   -4.7478   -0.0500   -0.6878 H   0  0  0  0  0  0  0  0  0  0  0  0
   -2.5787    1.8607    1.5067 H   0  0  0  0  0  0  0  0  0  0  0  0
   -3.1780    4.0665    2.3859 H   0  0  0  0  0  0  0  0  0  0  0  0
   -5.1971    5.2469    1.5577 H   0  0  0  0  0  0  0  0  0  0  0  0
   -6.6075    4.1959   -0.1932 H   0  0  0  0  0  0  0  0  0  0  0  0
   -6.0028    1.9955   -1.1170 H   0  0  0  0  0  0  0  0  0  0  0  0
   -4.6405   -2.5102   -0.5423 H   0  0  0  0  0  0  0  0  0  0  0  0
   -0.9386   -5.4877   -0.7764 H   0  0  0  0  0  0  0  0  0  0  0  0
   -0.4524   -4.6344    0.7036 H   0  0  0  0  0  0  0  0  0  0  0  0
    0.3646   -4.2941   -0.8379 H   0  0  0  0  0  0  0  0  0  0  0  0
    2.1643   -0.6966   -1.4286 H   0  0  0  0  0  0  0  0  0  0  0  0
    2.1866   -0.7387    0.3570 H   0  0  0  0  0  0  0  0  0  0  0  0
    3.1336    1.5272    0.4286 H   0  0  0  0  0  0  0  0  0  0  0  0
    3.0128    1.6856   -1.3259 H   0  0  0  0  0  0  0  0  0  0  0  0
    5.3095    1.1551   -0.7237 H   0  0  0  0  0  0  0  0  0  0  0  0
    4.6169   -0.2299   -1.6015 H   0  0  0  0  0  0  0  0  0  0  0  0
    6.0644   -2.0029    1.0496 H   0  0  0  0  0  0  0  0  0  0  0  0
    6.2320   -1.5920   -0.6583 H   0  0  0  0  0  0  0  0  0  0  0  0
    8.1920   -0.8233    0.7559 H   0  0  0  0  0  0  0  0  0  0  0  0
    7.0819    0.2069    1.6925 H   0  0  0  0  0  0  0  0  0  0  0  0
    7.3773    0.5513   -0.0088 H   0  0  0  0  0  0  0  0  0  0  0  0
  1  2  1  0
  2  3  1  0
  3  4  1  0
  4  5  2  0
  5  6  1  0
  6  7  2  0
  7  8  1  0
  8  9  2  0
  2 10  2  0
 10 11  1  0
 11 12  2  0
 12 13  1  0
 13 14  1  0
 13 15  1  0
 15 16  2  0
 16 17  1  0
 17 18  2  3
 18 19  1  0
 19 20  1  0
 20 21  1  0
 21 22  1  0
 22 23  1  0
 23 24  1  0
 17  1  1  0
  9  4  1  0
 15 10  1  0
  1 25  1  0
  3 26  1  0
  5 27  1  0
  6 28  1  0
  7 29  1  0
  8 30  1  0
  9 31  1  0
 11 32  1  0
 14 33  1  0
 14 34  1  0
 14 35  1  0
 19 36  1  0
 19 37  1  0
 20 38  1  0
 20 39  1  0
 21 40  1  0
 21 41  1  0
 23 42  1  0
 23 43  1  0
 24 44  1  0
 24 45  1  0
 24 46  1  0
M  END
>  <ScrubInfo>  (2) 
{"isomerGroup": 0, "isomerId": 1, "confId": 0, "nr_conformers:": 1, "nr_isomers:": 9}

$$$$
_i2
     RDKit          3D

 46 48  0  0  0  0  0  0  0  0999 V2000
    0.1017    0.3092   -0.1530 N   0  0  0  0  0  0  0  0  0  0  0  0
    0.6759   -0.8205   -0.6843 C   0  0  0  0  0  0  0  0  0  0  0  0
    2.0429   -0.7775   -0.6610 N   0  0  0  0  0  0  0  0  0  0  0  0
    2.8335   -1.9532   -0.9910 C   0  0  0  0  0  0  0  0  0  0  0  0
    4.3277   -1.6236   -0.9514 C   0  0  0  0  0  0  0  0  0  0  0  0
    4.8218   -1.2826    0.4555 C   0  0  0  0  0  0  0  0  0  0  0  0
    4.1824   -0.1093    0.9689 O   0  0  0  0  0  0  0  0  0  0  0  0
    4.8601    1.0936    0.6005 C   0  0  0  0  0  0  0  0  0  0  0  0
    4.0704    2.2673    1.1455 C   0  0  0  0  0  0  0  0  0  0  0  0
   -0.0097   -1.8202   -1.1756 N   0  0  0  0  0  0  0  0  0  0  0  0
   -1.3525   -1.6075   -1.0781 C   0  0  0  0  0  0  0  0  0  0  0  0
   -2.0184   -0.5059   -0.5617 C   0  0  0  0  0  0  0  0  0  0  0  0
   -3.3803   -0.8239   -0.7076 C   0  0  0  0  0  0  0  0  0  0  0  0
   -3.5763   -2.0241   -1.2694 N   0  0  0  0  0  0  0  0  0  0  0  0
   -2.3216   -2.4787   -1.4887 N   0  0  0  0  0  0  0  0  0  0  0  0
   -2.1360   -3.7709   -2.0987 C   0  0  0  0  0  0  0  0  0  0  0  0
   -1.2379    0.6024   -0.0474 C   0  0  0  0  0  0  0  0  0  0  0  0
   -1.6493    1.7315    0.4448 N   0  0  0  0  0  0  0  0  0  0  0  0
   -3.0059    2.0421    0.5494 C   0  0  0  0  0  0  0  0  0  0  0  0
   -3.6616    2.7027   -0.4932 C   0  0  0  0  0  0  0  0  0  0  0  0
   -5.0116    3.0395   -0.3777 C   0  0  0  0  0  0  0  0  0  0  0  0
   -5.7084    2.7314    0.7903 C   0  0  0  0  0  0  0  0  0  0  0  0
   -5.0543    2.0955    1.8449 C   0  0  0  0  0  0  0  0  0  0  0  0
   -3.7042    1.7598    1.7266 C   0  0  0  0  0  0  0  0  0  0  0  0
    0.7116    1.0649    0.1106 H   0  0  0  0  0  0  0  0  0  0  0  0
    2.4378   -0.2880    0.1433 H   0  0  0  0  0  0  0  0  0  0  0  0
    2.5763   -2.2978   -1.9993 H   0  0  0  0  0  0  0  0  0  0  0  0
    2.6096   -2.7654   -0.2896 H   0  0  0  0  0  0  0  0  0  0  0  0
    4.8883   -2.4912   -1.3182 H   0  0  0  0  0  0  0  0  0  0  0  0
    4.5300   -0.7901   -1.6336 H   0  0  0  0  0  0  0  0  0  0  0  0
    5.9116   -1.1642    0.4685 H   0  0  0  0  0  0  0  0  0  0  0  0
    4.5783   -2.1052    1.1368 H   0  0  0  0  0  0  0  0  0  0  0  0
    4.9314    1.1707   -0.4889 H   0  0  0  0  0  0  0  0  0  0  0  0
    5.8681    1.0923    1.0290 H   0  0  0  0  0  0  0  0  0  0  0  0
    4.5548    3.2146    0.8931 H   0  0  0  0  0  0  0  0  0  0  0  0
    3.0540    2.2704    0.7378 H   0  0  0  0  0  0  0  0  0  0  0  0
    3.9764    2.1970    2.2342 H   0  0  0  0  0  0  0  0  0  0  0  0
   -4.2526   -0.2465   -0.4346 H   0  0  0  0  0  0  0  0  0  0  0  0
   -2.5702   -4.5268   -1.4394 H   0  0  0  0  0  0  0  0  0  0  0  0
   -2.6444   -3.7711   -3.0663 H   0  0  0  0  0  0  0  0  0  0  0  0
   -1.0721   -3.9716   -2.2420 H   0  0  0  0  0  0  0  0  0  0  0  0
   -3.1167    2.9526   -1.3994 H   0  0  0  0  0  0  0  0  0  0  0  0
   -5.5165    3.5450   -1.1966 H   0  0  0  0  0  0  0  0  0  0  0  0
   -6.7592    2.9943    0.8817 H   0  0  0  0  0  0  0  0  0  0  0  0
   -5.5924    1.8647    2.7605 H   0  0  0  0  0  0  0  0  0  0  0  0
   -3.1923    1.2742    2.5527 H   0  0  0  0  0  0  0  0  0  0  0  0
  1  2  1  0
  2  3  1  0
  3  4  1  0
  4  5  1  0
  5  6  1  0
  6  7  1  0
  7  8  1  0
  8  9  1  0
  2 10  2  0
 10 11  1  0
 11 12  2  0
 12 13  1  0
 13 14  2  0
 14 15  1  0
 15 16  1  0
 12 17  1  0
 17 18  2  3
 18 19  1  0
 19 20  2  0
 20 21  1  0
 21 22  2  0
 22 23  1  0
 23 24  2  0
 17  1  1  0
 24 19  1  0
 15 11  1  0
  1 25  1  0
  3 26  1  0
  4 27  1  0
  4 28  1  0
  5 29  1  0
  5 30  1  0
  6 31  1  0
  6 32  1  0
  8 33  1  0
  8 34  1  0
  9 35  1  0
  9 36  1  0
  9 37  1  0
 13 38  1  0
 16 39  1  0
 16 40  1  0
 16 41  1  0
 20 42  1  0
 21 43  1  0
 22 44  1  0
 23 45  1  0
 24 46  1  0
M  END
>  <ScrubInfo>  (3) 
{"isomerGroup": 0, "isomerId": 2, "confId": 0, "nr_conformers:": 1, "nr_isomers:": 9}

$$$$
_i3
     RDKit          3D

 46 48  0  0  0  0  0  0  0  0999 V2000
    0.3987    1.0313   -0.9968 N   0  0  0  0  0  0  0  0  0  0  0  0
    0.4136    0.1258    0.0528 C   0  0  0  0  0  0  0  0  0  0  0  0
    1.4206   -0.1701    0.7933 N   0  0  0  0  0  0  0  0  0  0  0  0
    2.7171    0.4727    0.6119 C   0  0  0  0  0  0  0  0  0  0  0  0
    3.5586   -0.3083   -0.3968 C   0  0  0  0  0  0  0  0  0  0  0  0
    4.0552   -1.6350    0.1695 C   0  0  0  0  0  0  0  0  0  0  0  0
    5.0583   -1.3708    1.1523 O   0  0  0  0  0  0  0  0  0  0  0  0
    5.4918   -2.5681    1.7933 C   0  0  0  0  0  0  0  0  0  0  0  0
    6.5632   -2.2091    2.8034 C   0  0  0  0  0  0  0  0  0  0  0  0
   -0.7271   -0.5846    0.4015 N   0  0  0  0  0  0  0  0  0  0  0  0
   -1.8389   -0.3863   -0.2476 C   0  0  0  0  0  0  0  0  0  0  0  0
   -2.9956   -1.0683    0.0342 N   0  0  0  0  0  0  0  0  0  0  0  0
   -4.2105   -0.4436    0.4209 C   0  0  0  0  0  0  0  0  0  0  0  0
   -4.2762    0.8653    0.9153 C   0  0  0  0  0  0  0  0  0  0  0  0
   -5.4972    1.4132    1.3178 C   0  0  0  0  0  0  0  0  0  0  0  0
   -6.6627    0.6537    1.2457 C   0  0  0  0  0  0  0  0  0  0  0  0
   -6.6082   -0.6569    0.7781 C   0  0  0  0  0  0  0  0  0  0  0  0
   -5.3876   -1.2037    0.3761 C   0  0  0  0  0  0  0  0  0  0  0  0
   -1.8868    0.5278   -1.3641 C   0  0  0  0  0  0  0  0  0  0  0  0
   -2.8215    0.9574   -2.3179 C   0  0  0  0  0  0  0  0  0  0  0  0
   -2.3019    1.8553   -3.1708 N   0  0  0  0  0  0  0  0  0  0  0  0
   -1.0177    1.9905   -2.7576 N   0  0  0  0  0  0  0  0  0  0  0  0
   -0.1462    2.8924   -3.4664 C   0  0  0  0  0  0  0  0  0  0  0  0
   -0.7430    1.2037   -1.6847 C   0  0  0  0  0  0  0  0  0  0  0  0
    1.2670    1.4860   -1.2321 H   0  0  0  0  0  0  0  0  0  0  0  0
    3.2232    0.5130    1.5832 H   0  0  0  0  0  0  0  0  0  0  0  0
    2.6157    1.5167    0.2954 H   0  0  0  0  0  0  0  0  0  0  0  0
    4.4231    0.3073   -0.6732 H   0  0  0  0  0  0  0  0  0  0  0  0
    2.9778   -0.4963   -1.3068 H   0  0  0  0  0  0  0  0  0  0  0  0
    4.5043   -2.2269   -0.6361 H   0  0  0  0  0  0  0  0  0  0  0  0
    3.2318   -2.2090    0.6092 H   0  0  0  0  0  0  0  0  0  0  0  0
    5.8986   -3.2607    1.0483 H   0  0  0  0  0  0  0  0  0  0  0  0
    4.6456   -3.0427    2.3020 H   0  0  0  0  0  0  0  0  0  0  0  0
    7.4089   -1.7181    2.3104 H   0  0  0  0  0  0  0  0  0  0  0  0
    6.9259   -3.1012    3.3215 H   0  0  0  0  0  0  0  0  0  0  0  0
    6.1734   -1.5036    3.5446 H   0  0  0  0  0  0  0  0  0  0  0  0
   -2.7866   -1.7775    0.7355 H   0  0  0  0  0  0  0  0  0  0  0  0
   -3.3810    1.4757    1.0065 H   0  0  0  0  0  0  0  0  0  0  0  0
   -5.5351    2.4325    1.6939 H   0  0  0  0  0  0  0  0  0  0  0  0
   -7.6114    1.0814    1.5598 H   0  0  0  0  0  0  0  0  0  0  0  0
   -7.5146   -1.2545    0.7264 H   0  0  0  0  0  0  0  0  0  0  0  0
   -5.3611   -2.2280    0.0115 H   0  0  0  0  0  0  0  0  0  0  0  0
   -3.8563    0.6615   -2.4344 H   0  0  0  0  0  0  0  0  0  0  0  0
   -0.0231    2.5201   -4.4865 H   0  0  0  0  0  0  0  0  0  0  0  0
    0.8244    2.9412   -2.9685 H   0  0  0  0  0  0  0  0  0  0  0  0
   -0.6065    3.8837   -3.4738 H   0  0  0  0  0  0  0  0  0  0  0  0
  1  2  1  0
  2  3  2  3
  3  4  1  0
  4  5  1  0
  5  6  1  0
  6  7  1  0
  7  8  1  0
  8  9  1  0
  2 10  1  0
 10 11  2  0
 11 12  1  0
 12 13  1  0
 13 14  2  0
 14 15  1  0
 15 16  2  0
 16 17  1  0
 17 18  2  0
 11 19  1  0
 19 20  1  0
 20 21  2  0
 21 22  1  0
 22 23  1  0
 22 24  1  0
 24  1  1  0
 18 13  1  0
 24 19  2  0
  1 25  1  0
  4 26  1  0
  4 27  1  0
  5 28  1  0
  5 29  1  0
  6 30  1  0
  6 31  1  0
  8 32  1  0
  8 33  1  0
  9 34  1  0
  9 35  1  0
  9 36  1  0
 12 37  1  0
 14 38  1  0
 15 39  1  0
 16 40  1  0
 17 41  1  0
 18 42  1  0
 20 43  1  0
 23 44  1  0
 23 45  1  0
 23 46  1  0
M  END
>  <ScrubInfo>  (4) 
{"isomerGroup": 0, "isomerId": 3, "confId": 0, "nr_conformers:": 1, "nr_isomers:": 9}

$$$$
_i4
     RDKit          3D

 46 48  0  0  0  0  0  0  0  0999 V2000
   -3.3236    0.1153   -2.4689 N   0  0  0  0  0  0  0  0  0  0  0  0
   -3.5297    0.2118   -1.0967 C   0  0  0  0  0  0  0  0  0  0  0  0
   -2.4188    0.0060   -0.3727 C   0  0  0  0  0  0  0  0  0  0  0  0
   -1.9953   -0.0080    1.0219 C   0  0  0  0  0  0  0  0  0  0  0  0
   -2.6773    0.1229    2.1108 N   0  0  0  0  0  0  0  0  0  0  0  0
   -4.0601    0.3098    2.0670 C   0  0  0  0  0  0  0  0  0  0  0  0
   -4.5965    1.6002    2.0649 C   0  0  0  0  0  0  0  0  0  0  0  0
   -5.9793    1.7908    2.0366 C   0  0  0  0  0  0  0  0  0  0  0  0
   -6.8337    0.6886    2.0264 C   0  0  0  0  0  0  0  0  0  0  0  0
   -6.3066   -0.6022    2.0546 C   0  0  0  0  0  0  0  0  0  0  0  0
   -4.9233   -0.7894    2.0827 C   0  0  0  0  0  0  0  0  0  0  0  0
   -0.6477   -0.1907    1.1895 N   0  0  0  0  0  0  0  0  0  0  0  0
    0.1722   -0.4001    0.2030 C   0  0  0  0  0  0  0  0  0  0  0  0
    1.4862   -0.5540    0.5406 N   0  0  0  0  0  0  0  0  0  0  0  0
    2.4199   -1.2922   -0.2812 C   0  0  0  0  0  0  0  0  0  0  0  0
    3.8382   -1.1686    0.2648 C   0  0  0  0  0  0  0  0  0  0  0  0
    4.3844    0.2525    0.1475 C   0  0  0  0  0  0  0  0  0  0  0  0
    5.7162    0.3216    0.6616 O   0  0  0  0  0  0  0  0  0  0  0  0
    6.7100   -0.0043   -0.3068 C   0  0  0  0  0  0  0  0  0  0  0  0
    8.0707    0.0963    0.3543 C   0  0  0  0  0  0  0  0  0  0  0  0
   -0.1776   -0.4833   -1.1176 N   0  0  0  0  0  0  0  0  0  0  0  0
   -1.4164   -0.2955   -1.4119 C   0  0  0  0  0  0  0  0  0  0  0  0
   -2.0226   -0.3232   -2.6695 N   0  0  0  0  0  0  0  0  0  0  0  0
   -1.3054    0.1221   -3.8491 C   0  0  0  0  0  0  0  0  0  0  0  0
   -4.0569   -0.4094   -2.9513 H   0  0  0  0  0  0  0  0  0  0  0  0
   -4.5269    0.4303   -0.7436 H   0  0  0  0  0  0  0  0  0  0  0  0
   -3.9295    2.4579    2.0911 H   0  0  0  0  0  0  0  0  0  0  0  0
   -6.3874    2.7981    2.0347 H   0  0  0  0  0  0  0  0  0  0  0  0
   -7.9107    0.8361    2.0137 H   0  0  0  0  0  0  0  0  0  0  0  0
   -6.9705   -1.4625    2.0680 H   0  0  0  0  0  0  0  0  0  0  0  0
   -4.5113   -1.7941    2.1247 H   0  0  0  0  0  0  0  0  0  0  0  0
    1.5841   -0.6786    1.5430 H   0  0  0  0  0  0  0  0  0  0  0  0
    2.3962   -0.9330   -1.3166 H   0  0  0  0  0  0  0  0  0  0  0  0
    2.1308   -2.3494   -0.2902 H   0  0  0  0  0  0  0  0  0  0  0  0
    3.8794   -1.4884    1.3137 H   0  0  0  0  0  0  0  0  0  0  0  0
    4.4881   -1.8600   -0.2833 H   0  0  0  0  0  0  0  0  0  0  0  0
    4.3489    0.6185   -0.8854 H   0  0  0  0  0  0  0  0  0  0  0  0
    3.7798    0.9330    0.7562 H   0  0  0  0  0  0  0  0  0  0  0  0
    6.6531    0.6997   -1.1442 H   0  0  0  0  0  0  0  0  0  0  0  0
    6.5573   -1.0208   -0.6823 H   0  0  0  0  0  0  0  0  0  0  0  0
    8.2357    1.1055    0.7459 H   0  0  0  0  0  0  0  0  0  0  0  0
    8.8679   -0.1418   -0.3554 H   0  0  0  0  0  0  0  0  0  0  0  0
    8.1376   -0.5905    1.2046 H   0  0  0  0  0  0  0  0  0  0  0  0
   -1.0743    1.1906   -3.7845 H   0  0  0  0  0  0  0  0  0  0  0  0
   -0.3687   -0.4330   -3.9630 H   0  0  0  0  0  0  0  0  0  0  0  0
   -1.9067   -0.0501   -4.7477 H   0  0  0  0  0  0  0  0  0  0  0  0
  1  2  1  0
  2  3  2  0
  3  4  1  0
  4  5  2  3
  5  6  1  0
  6  7  2  0
  7  8  1  0
  8  9  2  0
  9 10  1  0
 10 11  2  0
  4 12  1  0
 12 13  2  0
 13 14  1  0
 14 15  1  0
 15 16  1  0
 16 17  1  0
 17 18  1  0
 18 19  1  0
 19 20  1  0
 13 21  1  0
 21 22  2  0
 22 23  1  0
 23 24  1  0
 23  1  1  0
 22  3  1  0
 11  6  1  0
  1 25  1  0
  2 26  1  0
  7 27  1  0
  8 28  1  0
  9 29  1  0
 10 30  1  0
 11 31  1  0
 14 32  1  0
 15 33  1  0
 15 34  1  0
 16 35  1  0
 16 36  1  0
 17 37  1  0
 17 38  1  0
 19 39  1  0
 19 40  1  0
 20 41  1  0
 20 42  1  0
 20 43  1  0
 24 44  1  0
 24 45  1  0
 24 46  1  0
M  END
>  <ScrubInfo>  (5) 
{"isomerGroup": 0, "isomerId": 4, "confId": 0, "nr_conformers:": 1, "nr_isomers:": 9}

$$$$
_i5
     RDKit          3D

 46 48  0  0  0  0  0  0  0  0999 V2000
    0.0053   -0.5062    0.2722 N   0  0  0  0  0  0  0  0  0  0  0  0
   -0.0555    0.8156    0.6346 C   0  0  0  0  0  0  0  0  0  0  0  0
    1.1399    1.3826    0.9732 N   0  0  0  0  0  0  0  0  0  0  0  0
    2.2985    1.3343    0.0905 C   0  0  0  0  0  0  0  0  0  0  0  0
    3.3751    0.4364    0.6841 C   0  0  0  0  0  0  0  0  0  0  0  0
    4.6173    0.4068   -0.1976 C   0  0  0  0  0  0  0  0  0  0  0  0
    5.5488   -0.5027    0.3839 O   0  0  0  0  0  0  0  0  0  0  0  0
    6.7590   -0.6295   -0.3607 C   0  0  0  0  0  0  0  0  0  0  0  0
    7.7125    0.5156   -0.0701 C   0  0  0  0  0  0  0  0  0  0  0  0
   -1.1385    1.5363    0.6913 N   0  0  0  0  0  0  0  0  0  0  0  0
   -2.3641    0.9734    0.3514 C   0  0  0  0  0  0  0  0  0  0  0  0
   -3.3805    1.7756    0.3769 N   0  0  0  0  0  0  0  0  0  0  0  0
   -4.6718    1.3589    0.0571 C   0  0  0  0  0  0  0  0  0  0  0  0
   -5.5439    0.9359    1.0641 C   0  0  0  0  0  0  0  0  0  0  0  0
   -6.8467    0.5431    0.7518 C   0  0  0  0  0  0  0  0  0  0  0  0
   -7.2894    0.5886   -0.5698 C   0  0  0  0  0  0  0  0  0  0  0  0
   -6.4343    1.0364   -1.5764 C   0  0  0  0  0  0  0  0  0  0  0  0
   -5.1320    1.4288   -1.2609 C   0  0  0  0  0  0  0  0  0  0  0  0
   -2.3573   -0.4409    0.0115 C   0  0  0  0  0  0  0  0  0  0  0  0
   -3.2915   -1.4378   -0.3250 C   0  0  0  0  0  0  0  0  0  0  0  0
   -2.7238   -2.6381   -0.5295 N   0  0  0  0  0  0  0  0  0  0  0  0
   -1.4080   -2.4103   -0.3192 N   0  0  0  0  0  0  0  0  0  0  0  0
   -0.4777   -3.5024   -0.4512 C   0  0  0  0  0  0  0  0  0  0  0  0
   -1.1608   -1.1128   -0.0057 C   0  0  0  0  0  0  0  0  0  0  0  0
    0.8579   -1.0018    0.4920 H   0  0  0  0  0  0  0  0  0  0  0  0
    0.9539    2.3389    1.2743 H   0  0  0  0  0  0  0  0  0  0  0  0
    2.0151    0.9901   -0.9115 H   0  0  0  0  0  0  0  0  0  0  0  0
    2.6911    2.3516   -0.0248 H   0  0  0  0  0  0  0  0  0  0  0  0
    3.6487    0.7805    1.6899 H   0  0  0  0  0  0  0  0  0  0  0  0
    2.9998   -0.5852    0.8191 H   0  0  0  0  0  0  0  0  0  0  0  0
    5.0543    1.4085   -0.2607 H   0  0  0  0  0  0  0  0  0  0  0  0
    4.3579    0.0648   -1.2060 H   0  0  0  0  0  0  0  0  0  0  0  0
    6.5481   -0.7117   -1.4328 H   0  0  0  0  0  0  0  0  0  0  0  0
    7.2279   -1.5678   -0.0466 H   0  0  0  0  0  0  0  0  0  0  0  0
    8.6783    0.3448   -0.5545 H   0  0  0  0  0  0  0  0  0  0  0  0
    7.3136    1.4680   -0.4312 H   0  0  0  0  0  0  0  0  0  0  0  0
    7.8707    0.6214    1.0081 H   0  0  0  0  0  0  0  0  0  0  0  0
   -5.2030    0.9160    2.0957 H   0  0  0  0  0  0  0  0  0  0  0  0
   -7.5162    0.2099    1.5403 H   0  0  0  0  0  0  0  0  0  0  0  0
   -8.3048    0.2868   -0.8136 H   0  0  0  0  0  0  0  0  0  0  0  0
   -6.7821    1.0881   -2.6046 H   0  0  0  0  0  0  0  0  0  0  0  0
   -4.4706    1.7933   -2.0421 H   0  0  0  0  0  0  0  0  0  0  0  0
   -4.3654   -1.3642   -0.4290 H   0  0  0  0  0  0  0  0  0  0  0  0
   -0.6496   -3.9915   -1.4136 H   0  0  0  0  0  0  0  0  0  0  0  0
    0.5467   -3.1263   -0.4100 H   0  0  0  0  0  0  0  0  0  0  0  0
   -0.6529   -4.2019    0.3698 H   0  0  0  0  0  0  0  0  0  0  0  0
  1  2  1  0
  2  3  1  0
  3  4  1  0
  4  5  1  0
  5  6  1  0
  6  7  1  0
  7  8  1  0
  8  9  1  0
  2 10  2  0
 10 11  1  0
 11 12  2  3
 12 13  1  0
 13 14  2  0
 14 15  1  0
 15 16  2  0
 16 17  1  0
 17 18  2  0
 11 19  1  0
 19 20  1  0
 20 21  2  0
 21 22  1  0
 22 23  1  0
 22 24  1  0
 24  1  1  0
 18 13  1  0
 24 19  2  0
  1 25  1  0
  3 26  1  0
  4 27  1  0
  4 28  1  0
  5 29  1  0
  5 30  1  0
  6 31  1  0
  6 32  1  0
  8 33  1  0
  8 34  1  0
  9 35  1  0
  9 36  1  0
  9 37  1  0
 14 38  1  0
 15 39  1  0
 16 40  1  0
 17 41  1  0
 18 42  1  0
 20 43  1  0
 23 44  1  0
 23 45  1  0
 23 46  1  0
M  END
>  <ScrubInfo>  (6) 
{"isomerGroup": 0, "isomerId": 5, "confId": 0, "nr_conformers:": 1, "nr_isomers:": 9}

$$$$
_i6
     RDKit          3D

 46 48  0  0  0  0  0  0  0  0999 V2000
   -3.5463    2.2173    0.6765 N   0  0  0  0  0  0  0  0  0  0  0  0
   -3.5602    0.9048    0.2168 C   0  0  0  0  0  0  0  0  0  0  0  0
   -2.3723    0.5052   -0.2558 C   0  0  0  0  0  0  0  0  0  0  0  0
   -1.7747   -0.6763   -0.8732 C   0  0  0  0  0  0  0  0  0  0  0  0
   -2.4551   -1.8561   -1.0881 N   0  0  0  0  0  0  0  0  0  0  0  0
   -3.2110   -2.5254   -0.0980 C   0  0  0  0  0  0  0  0  0  0  0  0
   -2.9366   -2.4170    1.2713 C   0  0  0  0  0  0  0  0  0  0  0  0
   -3.6813   -3.1407    2.2065 C   0  0  0  0  0  0  0  0  0  0  0  0
   -4.6953   -3.9960    1.7814 C   0  0  0  0  0  0  0  0  0  0  0  0
   -4.9583   -4.1367    0.4211 C   0  0  0  0  0  0  0  0  0  0  0  0
   -4.2123   -3.4135   -0.5121 C   0  0  0  0  0  0  0  0  0  0  0  0
   -0.5382   -0.6002   -1.2809 N   0  0  0  0  0  0  0  0  0  0  0  0
    0.1594    0.5740   -1.0910 C   0  0  0  0  0  0  0  0  0  0  0  0
    1.3499    0.5465   -1.5783 N   0  0  0  0  0  0  0  0  0  0  0  0
    2.1750    1.7444   -1.4172 C   0  0  0  0  0  0  0  0  0  0  0  0
    3.5396    1.4899   -2.0587 C   0  0  0  0  0  0  0  0  0  0  0  0
    4.3802    0.4914   -1.2686 C   0  0  0  0  0  0  0  0  0  0  0  0
    4.7824    1.0909   -0.0347 O   0  0  0  0  0  0  0  0  0  0  0  0
    5.4103    0.1749    0.8588 C   0  0  0  0  0  0  0  0  0  0  0  0
    6.8370   -0.1347    0.4415 C   0  0  0  0  0  0  0  0  0  0  0  0
   -0.2901    1.7083   -0.4524 N   0  0  0  0  0  0  0  0  0  0  0  0
   -1.5085    1.6833   -0.0372 C   0  0  0  0  0  0  0  0  0  0  0  0
   -2.2310    2.6710    0.6339 N   0  0  0  0  0  0  0  0  0  0  0  0
   -1.9769    4.0773    0.3845 C   0  0  0  0  0  0  0  0  0  0  0  0
   -4.0383    2.3431    1.5641 H   0  0  0  0  0  0  0  0  0  0  0  0
   -4.4760    0.3333    0.2741 H   0  0  0  0  0  0  0  0  0  0  0  0
   -1.8454   -2.5252   -1.5556 H   0  0  0  0  0  0  0  0  0  0  0  0
   -2.1286   -1.7842    1.6303 H   0  0  0  0  0  0  0  0  0  0  0  0
   -3.4597   -3.0453    3.2666 H   0  0  0  0  0  0  0  0  0  0  0  0
   -5.2716   -4.5618    2.5091 H   0  0  0  0  0  0  0  0  0  0  0  0
   -5.7404   -4.8125    0.0847 H   0  0  0  0  0  0  0  0  0  0  0  0
   -4.4263   -3.5359   -1.5717 H   0  0  0  0  0  0  0  0  0  0  0  0
    1.7082    2.5920   -1.9338 H   0  0  0  0  0  0  0  0  0  0  0  0
    2.2994    2.0047   -0.3594 H   0  0  0  0  0  0  0  0  0  0  0  0
    4.0770    2.4441   -2.1160 H   0  0  0  0  0  0  0  0  0  0  0  0
    3.4028    1.1194   -3.0815 H   0  0  0  0  0  0  0  0  0  0  0  0
    5.2736    0.2448   -1.8515 H   0  0  0  0  0  0  0  0  0  0  0  0
    3.8188   -0.4306   -1.0811 H   0  0  0  0  0  0  0  0  0  0  0  0
    4.8151   -0.7402    0.9543 H   0  0  0  0  0  0  0  0  0  0  0  0
    5.4270    0.6548    1.8429 H   0  0  0  0  0  0  0  0  0  0  0  0
    7.4023    0.7893    0.2829 H   0  0  0  0  0  0  0  0  0  0  0  0
    7.3409   -0.7317    1.2072 H   0  0  0  0  0  0  0  0  0  0  0  0
    6.8636   -0.6949   -0.4979 H   0  0  0  0  0  0  0  0  0  0  0  0
   -2.2355    4.3428   -0.6459 H   0  0  0  0  0  0  0  0  0  0  0  0
   -2.5712    4.6975    1.0634 H   0  0  0  0  0  0  0  0  0  0  0  0
   -0.9215    4.3139    0.5534 H   0  0  0  0  0  0  0  0  0  0  0  0
  1  2  1  0
  2  3  2  0
  3  4  1  0
  4  5  1  0
  5  6  1  0
  6  7  2  0
  7  8  1  0
  8  9  2  0
  9 10  1  0
 10 11  2  0
  4 12  2  0
 12 13  1  0
 13 14  2  3
 14 15  1  0
 15 16  1  0
 16 17  1  0
 17 18  1  0
 18 19  1  0
 19 20  1  0
 13 21  1  0
 21 22  2  0
 22 23  1  0
 23 24  1  0
 23  1  1  0
 22  3  1  0
 11  6  1  0
  1 25  1  0
  2 26  1  0
  5 27  1  0
  7 28  1  0
  8 29  1  0
  9 30  1  0
 10 31  1  0
 11 32  1  0
 15 33  1  0
 15 34  1  0
 16 35  1  0
 16 36  1  0
 17 37  1  0
 17 38  1  0
 19 39  1  0
 19 40  1  0
 20 41  1  0
 20 42  1  0
 20 43  1  0
 24 44  1  0
 24 45  1  0
 24 46  1  0
M  END
>  <ScrubInfo>  (7) 
{"isomerGroup": 0, "isomerId": 6, "confId": 0, "nr_conformers:": 1, "nr_isomers:": 9}

$$$$
_i7
     RDKit          3D

 46 48  0  0  0  0  0  0  0  0999 V2000
   -2.7703   -2.2093    1.6653 N   0  0  0  0  0  0  0  0  0  0  0  0
   -2.9189   -0.8361    1.5048 C   0  0  0  0  0  0  0  0  0  0  0  0
   -2.0362   -0.2972    0.6517 C   0  0  0  0  0  0  0  0  0  0  0  0
   -1.6928    1.0043    0.0453 C   0  0  0  0  0  0  0  0  0  0  0  0
   -2.2234    2.1740    0.2487 N   0  0  0  0  0  0  0  0  0  0  0  0
   -3.2724    2.3349    1.1578 C   0  0  0  0  0  0  0  0  0  0  0  0
   -3.0063    2.6357    2.4964 C   0  0  0  0  0  0  0  0  0  0  0  0
   -4.0538    2.8163    3.4016 C   0  0  0  0  0  0  0  0  0  0  0  0
   -5.3748    2.7113    2.9672 C   0  0  0  0  0  0  0  0  0  0  0  0
   -5.6483    2.4355    1.6279 C   0  0  0  0  0  0  0  0  0  0  0  0
   -4.5987    2.2557    0.7249 C   0  0  0  0  0  0  0  0  0  0  0  0
   -0.6650    0.8996   -0.8521 N   0  0  0  0  0  0  0  0  0  0  0  0
    0.0275   -0.2260   -1.1972 C   0  0  0  0  0  0  0  0  0  0  0  0
    0.9644   -0.1220   -2.0818 N   0  0  0  0  0  0  0  0  0  0  0  0
    1.7097   -1.3224   -2.4661 C   0  0  0  0  0  0  0  0  0  0  0  0
    2.9231   -1.5234   -1.5648 C   0  0  0  0  0  0  0  0  0  0  0  0
    3.9203   -0.3746   -1.6650 C   0  0  0  0  0  0  0  0  0  0  0  0
    5.0614   -0.7034   -0.8682 O   0  0  0  0  0  0  0  0  0  0  0  0
    6.0297    0.3416   -0.8141 C   0  0  0  0  0  0  0  0  0  0  0  0
    6.8845    0.3784   -2.0683 C   0  0  0  0  0  0  0  0  0  0  0  0
   -0.2456   -1.4444   -0.6152 N   0  0  0  0  0  0  0  0  0  0  0  0
   -1.1972   -1.4866    0.2645 C   0  0  0  0  0  0  0  0  0  0  0  0
   -1.6237   -2.6011    0.9903 N   0  0  0  0  0  0  0  0  0  0  0  0
   -1.5547   -3.9348    0.4249 C   0  0  0  0  0  0  0  0  0  0  0  0
   -2.8468   -2.5135    2.6386 H   0  0  0  0  0  0  0  0  0  0  0  0
   -3.7026   -0.3400    2.0582 H   0  0  0  0  0  0  0  0  0  0  0  0
   -1.9773    2.7337    2.8311 H   0  0  0  0  0  0  0  0  0  0  0  0
   -3.8384    3.0492    4.4411 H   0  0  0  0  0  0  0  0  0  0  0  0
   -6.1916    2.8591    3.6695 H   0  0  0  0  0  0  0  0  0  0  0  0
   -6.6771    2.3701    1.2834 H   0  0  0  0  0  0  0  0  0  0  0  0
   -4.8116    2.0557   -0.3216 H   0  0  0  0  0  0  0  0  0  0  0  0
   -0.3816    1.7462   -1.3215 H   0  0  0  0  0  0  0  0  0  0  0  0
    1.0837   -2.2227   -2.4711 H   0  0  0  0  0  0  0  0  0  0  0  0
    2.0414   -1.1944   -3.5034 H   0  0  0  0  0  0  0  0  0  0  0  0
    2.6159   -1.6455   -0.5190 H   0  0  0  0  0  0  0  0  0  0  0  0
    3.4255   -2.4592   -1.8394 H   0  0  0  0  0  0  0  0  0  0  0  0
    4.2255   -0.2350   -2.7070 H   0  0  0  0  0  0  0  0  0  0  0  0
    3.4730    0.5542   -1.2941 H   0  0  0  0  0  0  0  0  0  0  0  0
    6.6745    0.1313    0.0457 H   0  0  0  0  0  0  0  0  0  0  0  0
    5.5476    1.3084   -0.6308 H   0  0  0  0  0  0  0  0  0  0  0  0
    6.2945    0.6637   -2.9443 H   0  0  0  0  0  0  0  0  0  0  0  0
    7.6995    1.0997   -1.9576 H   0  0  0  0  0  0  0  0  0  0  0  0
    7.3105   -0.6089   -2.2743 H   0  0  0  0  0  0  0  0  0  0  0  0
   -0.5345   -4.1646    0.1011 H   0  0  0  0  0  0  0  0  0  0  0  0
   -1.8431   -4.6809    1.1725 H   0  0  0  0  0  0  0  0  0  0  0  0
   -2.2253   -4.0274   -0.4357 H   0  0  0  0  0  0  0  0  0  0  0  0
  1  2  1  0
  2  3  2  0
  3  4  1  0
  4  5  2  3
  5  6  1  0
  6  7  2  0
  7  8  1  0
  8  9  2  0
  9 10  1  0
 10 11  2  0
  4 12  1  0
 12 13  1  0
 13 14  2  3
 14 15  1  0
 15 16  1  0
 16 17  1  0
 17 18  1  0
 18 19  1  0
 19 20  1  0
 13 21  1  0
 21 22  2  0
 22 23  1  0
 23 24  1  0
 23  1  1  0
 22  3  1  0
 11  6  1  0
  1 25  1  0
  2 26  1  0
  7 27  1  0
  8 28  1  0
  9 29  1  0
 10 30  1  0
 11 31  1  0
 12 32  1  0
 15 33  1  0
 15 34  1  0
 16 35  1  0
 16 36  1  0
 17 37  1  0
 17 38  1  0
 19 39  1  0
 19 40  1  0
 20 41  1  0
 20 42  1  0
 20 43  1  0
 24 44  1  0
 24 45  1  0
 24 46  1  0
M  END
>  <ScrubInfo>  (8) 
{"isomerGroup": 0, "isomerId": 7, "confId": 0, "nr_conformers:": 1, "nr_isomers:": 9}

$$$$
_i8
     RDKit          3D

 46 48  0  0  0  0  0  0  0  0999 V2000
   -0.1441    1.3909    0.0879 N   0  0  0  0  0  0  0  0  0  0  0  0
    0.3416    0.2412    0.6878 C   0  0  0  0  0  0  0  0  0  0  0  0
    1.4988    0.0464    1.2208 N   0  0  0  0  0  0  0  0  0  0  0  0
    2.4835    1.1260    1.2720 C   0  0  0  0  0  0  0  0  0  0  0  0
    3.3332    1.1332    0.0019 C   0  0  0  0  0  0  0  0  0  0  0  0
    4.2999   -0.0454   -0.0578 C   0  0  0  0  0  0  0  0  0  0  0  0
    5.3143    0.1368    0.9310 O   0  0  0  0  0  0  0  0  0  0  0  0
    6.2106   -0.9710    0.9746 C   0  0  0  0  0  0  0  0  0  0  0  0
    7.2593   -0.6965    2.0339 C   0  0  0  0  0  0  0  0  0  0  0  0
   -0.5609   -0.7996    0.6778 N   0  0  0  0  0  0  0  0  0  0  0  0
   -1.8442   -0.9020    0.1861 C   0  0  0  0  0  0  0  0  0  0  0  0
   -2.5181   -2.0073    0.2956 N   0  0  0  0  0  0  0  0  0  0  0  0
   -3.8194   -2.1388   -0.1908 C   0  0  0  0  0  0  0  0  0  0  0  0
   -4.9125   -1.8603    0.6344 C   0  0  0  0  0  0  0  0  0  0  0  0
   -6.2154   -2.0192    0.1585 C   0  0  0  0  0  0  0  0  0  0  0  0
   -6.4307   -2.4748   -1.1417 C   0  0  0  0  0  0  0  0  0  0  0  0
   -5.3452   -2.7802   -1.9621 C   0  0  0  0  0  0  0  0  0  0  0  0
   -4.0434   -2.6202   -1.4836 C   0  0  0  0  0  0  0  0  0  0  0  0
   -2.2627    0.3486   -0.4253 C   0  0  0  0  0  0  0  0  0  0  0  0
   -3.4026    0.8489   -1.0821 C   0  0  0  0  0  0  0  0  0  0  0  0
   -3.2611    2.1244   -1.4740 N   0  0  0  0  0  0  0  0  0  0  0  0
   -2.0203    2.4539   -1.0562 N   0  0  0  0  0  0  0  0  0  0  0  0
   -1.5201    3.7812   -1.3119 C   0  0  0  0  0  0  0  0  0  0  0  0
   -1.3919    1.4180   -0.4356 C   0  0  0  0  0  0  0  0  0  0  0  0
    0.4772    2.1862    0.0441 H   0  0  0  0  0  0  0  0  0  0  0  0
    3.1145    0.9766    2.1555 H   0  0  0  0  0  0  0  0  0  0  0  0
    2.0079    2.1026    1.4164 H   0  0  0  0  0  0  0  0  0  0  0  0
    3.9090    2.0663   -0.0195 H   0  0  0  0  0  0  0  0  0  0  0  0
    2.6883    1.1189   -0.8839 H   0  0  0  0  0  0  0  0  0  0  0  0
    4.7742   -0.0740   -1.0455 H   0  0  0  0  0  0  0  0  0  0  0  0
    3.7752   -0.9933    0.1064 H   0  0  0  0  0  0  0  0  0  0  0  0
    6.6909   -1.0973   -0.0018 H   0  0  0  0  0  0  0  0  0  0  0  0
    5.6589   -1.8836    1.2253 H   0  0  0  0  0  0  0  0  0  0  0  0
    7.9708   -1.5242    2.1024 H   0  0  0  0  0  0  0  0  0  0  0  0
    6.7900   -0.5516    3.0126 H   0  0  0  0  0  0  0  0  0  0  0  0
    7.8077    0.2231    1.8043 H   0  0  0  0  0  0  0  0  0  0  0  0
   -0.2188   -1.6415    1.1184 H   0  0  0  0  0  0  0  0  0  0  0  0
   -4.7454   -1.5183    1.6520 H   0  0  0  0  0  0  0  0  0  0  0  0
   -7.0600   -1.7939    0.8042 H   0  0  0  0  0  0  0  0  0  0  0  0
   -7.4449   -2.6018   -1.5122 H   0  0  0  0  0  0  0  0  0  0  0  0
   -5.5110   -3.1486   -2.9710 H   0  0  0  0  0  0  0  0  0  0  0  0
   -3.1982   -2.8712   -2.1184 H   0  0  0  0  0  0  0  0  0  0  0  0
   -4.3383    0.3545   -1.3044 H   0  0  0  0  0  0  0  0  0  0  0  0
   -1.0262    3.7761   -2.2864 H   0  0  0  0  0  0  0  0  0  0  0  0
   -0.8138    4.0607   -0.5268 H   0  0  0  0  0  0  0  0  0  0  0  0
   -2.3566    4.4852   -1.3130 H   0  0  0  0  0  0  0  0  0  0  0  0
  1  2  1  0
  2  3  2  3
  3  4  1  0
  4  5  1  0
  5  6  1  0
  6  7  1  0
  7  8  1  0
  8  9  1  0
  2 10  1  0
 10 11  1  0
 11 12  2  3
 12 13  1  0
 13 14  2  0
 14 15  1  0
 15 16  2  0
 16 17  1  0
 17 18  2  0
 11 19  1  0
 19 20  1  0
 20 21  2  0
 21 22  1  0
 22 23  1  0
 22 24  1  0
 24  1  1  0
 18 13  1  0
 24 19  2  0
  1 25  1  0
  4 26  1  0
  4 27  1  0
  5 28  1  0
  5 29  1  0
  6 30  1  0
  6 31  1  0
  8 32  1  0
  8 33  1  0
  9 34  1  0
  9 35  1  0
  9 36  1  0
 10 37  1  0
 14 38  1  0
 15 39  1  0
 16 40  1  0
 17 41  1  0
 18 42  1  0
 20 43  1  0
 23 44  1  0
 23 45  1  0
 23 46  1  0
M  END
>  <ScrubInfo>  (9) 
{"isomerGroup": 0, "isomerId": 8, "confId": 0, "nr_conformers:": 1, "nr_isomers:": 9}

$$$$
