_i0
     RDKit          3D

 45 47  0  0  0  0  0  0  0  0999 V2000
    5.3398    1.9398   -0.6295 C   0  0  0  0  0  0  0  0  0  0  0  0
    4.1592    1.0806   -0.1676 C   0  0  0  0  0  0  0  0  0  0  0  0
    4.3424    0.6988    1.3015 C   0  0  0  0  0  0  0  0  0  0  0  0
    2.8383    1.8347   -0.4236 C   0  0  0  0  0  0  0  0  0  0  0  0
    1.5588    1.0877   -0.0290 C   0  0  0  0  0  0  0  0  0  0  0  0
    1.3968   -0.1088   -0.8368 N   0  0  0  0  0  0  0  0  0  0  0  0
    0.2861   -0.8786   -0.5012 C   0  0  0  0  0  0  0  0  0  0  0  0
   -0.8477   -0.2749   -0.0978 N   0  0  0  0  0  0  0  0  0  0  0  0
   -1.9476   -0.9995    0.2348 C   0  0  0  0  0  0  0  0  0  0  0  0
   -3.1327   -0.3942    0.6715 N   0  0  0  0  0  0  0  0  0  0  0  0
   -3.5420    0.9499    0.7837 C   0  0  0  0  0  0  0  0  0  0  0  0
   -2.7962    2.0208    0.2769 C   0  0  0  0  0  0  0  0  0  0  0  0
   -3.2276    3.3448    0.4234 C   0  0  0  0  0  0  0  0  0  0  0  0
   -4.4182    3.6268    1.0857 C   0  0  0  0  0  0  0  0  0  0  0  0
   -5.1819    2.5841    1.6014 C   0  0  0  0  0  0  0  0  0  0  0  0
   -4.7463    1.2629    1.4512 C   0  0  0  0  0  0  0  0  0  0  0  0
   -5.8422   -0.1139    2.1822 Br  0  0  0  0  0  0  0  0  0  0  0  0
   -1.8333   -2.3925    0.1458 C   0  0  0  0  0  0  0  0  0  0  0  0
   -2.6340   -3.5325    0.3694 C   0  0  0  0  0  0  0  0  0  0  0  0
   -1.9927   -4.6784    0.1142 N   0  0  0  0  0  0  0  0  0  0  0  0
   -0.7677   -4.2636   -0.2857 N   0  0  0  0  0  0  0  0  0  0  0  0
    0.2228   -5.2398   -0.6637 C   0  0  0  0  0  0  0  0  0  0  0  0
   -0.6222   -2.9032   -0.2774 C   0  0  0  0  0  0  0  0  0  0  0  0
    0.4694   -2.2000   -0.6103 N   0  0  0  0  0  0  0  0  0  0  0  0
    5.3979    2.8748   -0.0618 H   0  0  0  0  0  0  0  0  0  0  0  0
    5.2457    2.1921   -1.6911 H   0  0  0  0  0  0  0  0  0  0  0  0
    6.2861    1.4043   -0.4977 H   0  0  0  0  0  0  0  0  0  0  0  0
    4.1718    0.1610   -0.7646 H   0  0  0  0  0  0  0  0  0  0  0  0
    5.3242    0.2410    1.4644 H   0  0  0  0  0  0  0  0  0  0  0  0
    4.2671    1.5764    1.9524 H   0  0  0  0  0  0  0  0  0  0  0  0
    3.5908   -0.0298    1.6200 H   0  0  0  0  0  0  0  0  0  0  0  0
    2.8583    2.7860    0.1241 H   0  0  0  0  0  0  0  0  0  0  0  0
    2.7799    2.0920   -1.4896 H   0  0  0  0  0  0  0  0  0  0  0  0
    1.5722    0.8447    1.0398 H   0  0  0  0  0  0  0  0  0  0  0  0
    0.7171    1.7708   -0.1990 H   0  0  0  0  0  0  0  0  0  0  0  0
    2.1781   -0.7549   -0.8226 H   0  0  0  0  0  0  0  0  0  0  0  0
   -3.8416   -1.0459    0.9852 H   0  0  0  0  0  0  0  0  0  0  0  0
   -1.8686    1.8485   -0.2600 H   0  0  0  0  0  0  0  0  0  0  0  0
   -2.6273    4.1533    0.0131 H   0  0  0  0  0  0  0  0  0  0  0  0
   -4.7502    4.6556    1.1974 H   0  0  0  0  0  0  0  0  0  0  0  0
   -6.1117    2.8075    2.1176 H   0  0  0  0  0  0  0  0  0  0  0  0
   -3.6607   -3.5791    0.7082 H   0  0  0  0  0  0  0  0  0  0  0  0
    1.1446   -4.7399   -0.9694 H   0  0  0  0  0  0  0  0  0  0  0  0
    0.4182   -5.8825    0.1985 H   0  0  0  0  0  0  0  0  0  0  0  0
   -0.1732   -5.8270   -1.4961 H   0  0  0  0  0  0  0  0  0  0  0  0
  1  2  1  0
  2  3  1  0
  2  4  1  0
  4  5  1  0
  5  6  1  0
  6  7  1  0
  7  8  2  0
  8  9  1  0
  9 10  1  0
 10 11  1  0
 11 12  2  0
 12 13  1  0
 13 14  2  0
 14 15  1  0
 15 16  2  0
 16 17  1  0
  9 18  2  0
 18 19  1  0
 19 20  2  0
 20 21  1  0
 21 22  1  0
 21 23  1  0
 23 24  2  0
 24  7  1  0
 16 11  1  0
 23 18  1  0
  1 25  1  0
  1 26  1  0
  1 27  1  0
  2 28  1  0
  3 29  1  0
  3 30  1  0
  3 31  1  0
  4 32  1  0
  4 33  1  0
  5 34  1  0
  5 35  1  0
  6 36  1  0
 10 37  1  0
 12 38  1  0
 13 39  1  0
 14 40  1  0
 15 41  1  0
 19 42  1  0
 22 43  1  0
 22 44  1  0
 22 45  1  0
M  END
>  <ScrubInfo>  (1) 
{"isomerGroup": 0, "isomerId": 0, "confId": 0, "nr_conformers:": 1, "nr_isomers:": 9}

$$$$
_i1
     RDKit          3D

 45 47  0  0  0  0  0  0  0  0999 V2000
    0.0109    0.3706   -0.0728 N   0  0  0  0  0  0  0  0  0  0  0  0
   -1.1891   -0.1099    0.4177 C   0  0  0  0  0  0  0  0  0  0  0  0
   -2.0214    0.6990    1.1629 N   0  0  0  0  0  0  0  0  0  0  0  0
   -3.3798    1.0186    0.9106 C   0  0  0  0  0  0  0  0  0  0  0  0
   -4.0777    0.5327   -0.2055 C   0  0  0  0  0  0  0  0  0  0  0  0
   -5.4346    0.8187   -0.3920 C   0  0  0  0  0  0  0  0  0  0  0  0
   -6.1242    1.5896    0.5392 C   0  0  0  0  0  0  0  0  0  0  0  0
   -5.4585    2.0793    1.6595 C   0  0  0  0  0  0  0  0  0  0  0  0
   -4.1020    1.7927    1.8437 C   0  0  0  0  0  0  0  0  0  0  0  0
   -3.2543    2.4953    3.3966 Br  0  0  0  0  0  0  0  0  0  0  0  0
   -1.4254   -1.4064    0.1868 C   0  0  0  0  0  0  0  0  0  0  0  0
   -2.4373   -2.4083    0.5388 C   0  0  0  0  0  0  0  0  0  0  0  0
   -2.1695   -3.5964    0.0572 N   0  0  0  0  0  0  0  0  0  0  0  0
   -0.9814   -3.4419   -0.6787 N   0  0  0  0  0  0  0  0  0  0  0  0
   -0.2363   -4.6192   -1.0554 C   0  0  0  0  0  0  0  0  0  0  0  0
   -0.4354   -2.1706   -0.5965 C   0  0  0  0  0  0  0  0  0  0  0  0
    0.6731   -1.7047   -1.0582 N   0  0  0  0  0  0  0  0  0  0  0  0
    0.9170   -0.3738   -0.7976 C   0  0  0  0  0  0  0  0  0  0  0  0
    2.0287    0.0390   -1.2886 N   0  0  0  0  0  0  0  0  0  0  0  0
    2.4642    1.4191   -1.1363 C   0  0  0  0  0  0  0  0  0  0  0  0
    3.1579    1.6453    0.2092 C   0  0  0  0  0  0  0  0  0  0  0  0
    4.6197    1.1572    0.2737 C   0  0  0  0  0  0  0  0  0  0  0  0
    4.7576   -0.3571    0.1177 C   0  0  0  0  0  0  0  0  0  0  0  0
    5.2471    1.5933    1.6015 C   0  0  0  0  0  0  0  0  0  0  0  0
    0.1985    1.3480    0.0686 H   0  0  0  0  0  0  0  0  0  0  0  0
   -1.5492    1.4679    1.6327 H   0  0  0  0  0  0  0  0  0  0  0  0
   -3.5781   -0.0569   -0.9695 H   0  0  0  0  0  0  0  0  0  0  0  0
   -5.9513    0.4376   -1.2704 H   0  0  0  0  0  0  0  0  0  0  0  0
   -7.1789    1.8090    0.3916 H   0  0  0  0  0  0  0  0  0  0  0  0
   -6.0032    2.6795    2.3840 H   0  0  0  0  0  0  0  0  0  0  0  0
   -3.3010   -2.1504    1.1648 H   0  0  0  0  0  0  0  0  0  0  0  0
   -0.9137   -5.4367   -1.3228 H   0  0  0  0  0  0  0  0  0  0  0  0
    0.4007   -4.4171   -1.9224 H   0  0  0  0  0  0  0  0  0  0  0  0
    0.3970   -4.9509   -0.2268 H   0  0  0  0  0  0  0  0  0  0  0  0
    1.6232    2.1135   -1.2478 H   0  0  0  0  0  0  0  0  0  0  0  0
    3.1508    1.6617   -1.9556 H   0  0  0  0  0  0  0  0  0  0  0  0
    2.5782    1.1904    1.0217 H   0  0  0  0  0  0  0  0  0  0  0  0
    3.1571    2.7272    0.3964 H   0  0  0  0  0  0  0  0  0  0  0  0
    5.1856    1.6371   -0.5349 H   0  0  0  0  0  0  0  0  0  0  0  0
    4.1206   -0.8907    0.8310 H   0  0  0  0  0  0  0  0  0  0  0  0
    4.4907   -0.6786   -0.8930 H   0  0  0  0  0  0  0  0  0  0  0  0
    5.7926   -0.6733    0.2882 H   0  0  0  0  0  0  0  0  0  0  0  0
    6.3010    1.2994    1.6500 H   0  0  0  0  0  0  0  0  0  0  0  0
    5.2011    2.6815    1.7159 H   0  0  0  0  0  0  0  0  0  0  0  0
    4.7289    1.1399    2.4534 H   0  0  0  0  0  0  0  0  0  0  0  0
  1  2  1  0
  2  3  1  0
  3  4  1  0
  4  5  2  0
  5  6  1  0
  6  7  2  0
  7  8  1  0
  8  9  2  0
  9 10  1  0
  2 11  2  0
 11 12  1  0
 12 13  2  0
 13 14  1  0
 14 15  1  0
 14 16  1  0
 16 17  2  0
 17 18  1  0
 18 19  2  3
 19 20  1  0
 20 21  1  0
 21 22  1  0
 22 23  1  0
 22 24  1  0
 18  1  1  0
  9  4  1  0
 16 11  1  0
  1 25  1  0
  3 26  1  0
  5 27  1  0
  6 28  1  0
  7 29  1  0
  8 30  1  0
 12 31  1  0
 15 32  1  0
 15 33  1  0
 15 34  1  0
 20 35  1  0
 20 36  1  0
 21 37  1  0
 21 38  1  0
 22 39  1  0
 23 40  1  0
 23 41  1  0
 23 42  1  0
 24 43  1  0
 24 44  1  0
 24 45  1  0
M  END
>  <ScrubInfo>  (2) 
{"isomerGroup": 0, "isomerId": 1, "confId": 0, "nr_conformers:": 1, "nr_isomers:": 9}

$$$$
_i2
     RDKit          3D

 45 47  0  0  0  0  0  0  0  0999 V2000
   -0.3153    0.7695    0.6783 N   0  0  0  0  0  0  0  0  0  0  0  0
    0.6622   -0.1761    0.8552 C   0  0  0  0  0  0  0  0  0  0  0  0
    1.9116    0.2793    1.1644 N   0  0  0  0  0  0  0  0  0  0  0  0
    2.5100    1.4627    0.5689 C   0  0  0  0  0  0  0  0  0  0  0  0
    4.0010    1.5591    0.9080 C   0  0  0  0  0  0  0  0  0  0  0  0
    4.9373    0.8998   -0.1263 C   0  0  0  0  0  0  0  0  0  0  0  0
    4.7099   -0.6032   -0.2811 C   0  0  0  0  0  0  0  0  0  0  0  0
    6.3961    1.1621    0.2591 C   0  0  0  0  0  0  0  0  0  0  0  0
    0.4604   -1.4659    0.7498 N   0  0  0  0  0  0  0  0  0  0  0  0
   -0.8351   -1.7456    0.4305 C   0  0  0  0  0  0  0  0  0  0  0  0
   -1.8881   -0.8633    0.2388 C   0  0  0  0  0  0  0  0  0  0  0  0
   -2.9789   -1.6904   -0.0821 C   0  0  0  0  0  0  0  0  0  0  0  0
   -2.6589   -2.9907   -0.0962 N   0  0  0  0  0  0  0  0  0  0  0  0
   -1.3469   -2.9969    0.2318 N   0  0  0  0  0  0  0  0  0  0  0  0
   -0.6479   -4.2538    0.3241 C   0  0  0  0  0  0  0  0  0  0  0  0
   -1.6446    0.5577    0.3951 C   0  0  0  0  0  0  0  0  0  0  0  0
   -2.4845    1.5444    0.3086 N   0  0  0  0  0  0  0  0  0  0  0  0
   -3.8476    1.3399    0.0564 C   0  0  0  0  0  0  0  0  0  0  0  0
   -4.3023    1.4106   -1.2666 C   0  0  0  0  0  0  0  0  0  0  0  0
   -5.6556    1.2425   -1.5678 C   0  0  0  0  0  0  0  0  0  0  0  0
   -6.5742    1.0178   -0.5444 C   0  0  0  0  0  0  0  0  0  0  0  0
   -6.1427    0.9698    0.7814 C   0  0  0  0  0  0  0  0  0  0  0  0
   -4.7874    1.1387    1.0816 C   0  0  0  0  0  0  0  0  0  0  0  0
   -4.2633    1.0784    2.9064 Br  0  0  0  0  0  0  0  0  0  0  0  0
   -0.1008    1.7179    0.9351 H   0  0  0  0  0  0  0  0  0  0  0  0
    2.5466   -0.5118    1.2288 H   0  0  0  0  0  0  0  0  0  0  0  0
    2.3576    1.4695   -0.5164 H   0  0  0  0  0  0  0  0  0  0  0  0
    2.0088    2.3467    0.9792 H   0  0  0  0  0  0  0  0  0  0  0  0
    4.2592    2.6258    0.9504 H   0  0  0  0  0  0  0  0  0  0  0  0
    4.1956    1.1532    1.9090 H   0  0  0  0  0  0  0  0  0  0  0  0
    4.7619    1.3708   -1.1020 H   0  0  0  0  0  0  0  0  0  0  0  0
    4.7966   -1.1200    0.6805 H   0  0  0  0  0  0  0  0  0  0  0  0
    3.7217   -0.8139   -0.7009 H   0  0  0  0  0  0  0  0  0  0  0  0
    5.4470   -1.0390   -0.9644 H   0  0  0  0  0  0  0  0  0  0  0  0
    7.0781    0.7471   -0.4906 H   0  0  0  0  0  0  0  0  0  0  0  0
    6.5940    2.2371    0.3285 H   0  0  0  0  0  0  0  0  0  0  0  0
    6.6390    0.7089    1.2263 H   0  0  0  0  0  0  0  0  0  0  0  0
   -4.0001   -1.4226   -0.3130 H   0  0  0  0  0  0  0  0  0  0  0  0
   -0.6005   -4.6927   -0.6757 H   0  0  0  0  0  0  0  0  0  0  0  0
   -1.2014   -4.9083    1.0024 H   0  0  0  0  0  0  0  0  0  0  0  0
    0.3614   -4.0960    0.7101 H   0  0  0  0  0  0  0  0  0  0  0  0
   -3.5919    1.5968   -2.0682 H   0  0  0  0  0  0  0  0  0  0  0  0
   -5.9914    1.2917   -2.6008 H   0  0  0  0  0  0  0  0  0  0  0  0
   -7.6283    0.8878   -0.7779 H   0  0  0  0  0  0  0  0  0  0  0  0
   -6.8685    0.8044    1.5737 H   0  0  0  0  0  0  0  0  0  0  0  0
  1  2  1  0
  2  3  1  0
  3  4  1  0
  4  5  1  0
  5  6  1  0
  6  7  1  0
  6  8  1  0
  2  9  2  0
  9 10  1  0
 10 11  2  0
 11 12  1  0
 12 13  2  0
 13 14  1  0
 14 15  1  0
 11 16  1  0
 16 17  2  3
 17 18  1  0
 18 19  2  0
 19 20  1  0
 20 21  2  0
 21 22  1  0
 22 23  2  0
 23 24  1  0
 16  1  1  0
 23 18  1  0
 14 10  1  0
  1 25  1  0
  3 26  1  0
  4 27  1  0
  4 28  1  0
  5 29  1  0
  5 30  1  0
  6 31  1  0
  7 32  1  0
  7 33  1  0
  7 34  1  0
  8 35  1  0
  8 36  1  0
  8 37  1  0
 12 38  1  0
 15 39  1  0
 15 40  1  0
 15 41  1  0
 19 42  1  0
 20 43  1  0
 21 44  1  0
 22 45  1  0
M  END
>  <ScrubInfo>  (3) 
{"isomerGroup": 0, "isomerId": 2, "confId": 0, "nr_conformers:": 1, "nr_isomers:": 9}

$$$$
_i3
     RDKit          3D

 45 47  0  0  0  0  0  0  0  0999 V2000
    0.5546   -0.5374    0.6280 N   0  0  0  0  0  0  0  0  0  0  0  0
    0.4219    0.6949    0.0058 C   0  0  0  0  0  0  0  0  0  0  0  0
    1.3373    1.5874   -0.1217 N   0  0  0  0  0  0  0  0  0  0  0  0
    2.6698    1.3924    0.4335 C   0  0  0  0  0  0  0  0  0  0  0  0
    3.5545    0.6666   -0.5811 C   0  0  0  0  0  0  0  0  0  0  0  0
    4.9499    0.3144   -0.0353 C   0  0  0  0  0  0  0  0  0  0  0  0
    5.7678    1.5561    0.3224 C   0  0  0  0  0  0  0  0  0  0  0  0
    5.7115   -0.5281   -1.0615 C   0  0  0  0  0  0  0  0  0  0  0  0
   -0.7818    1.0812   -0.5682 N   0  0  0  0  0  0  0  0  0  0  0  0
   -1.8122    0.2879   -0.5097 C   0  0  0  0  0  0  0  0  0  0  0  0
   -3.0229    0.5857   -1.0745 N   0  0  0  0  0  0  0  0  0  0  0  0
   -4.2253    0.8346   -0.3514 C   0  0  0  0  0  0  0  0  0  0  0  0
   -4.3036    0.7332    1.0463 C   0  0  0  0  0  0  0  0  0  0  0  0
   -5.5118    0.9443    1.7191 C   0  0  0  0  0  0  0  0  0  0  0  0
   -6.6666    1.2562    1.0075 C   0  0  0  0  0  0  0  0  0  0  0  0
   -6.6169    1.3602   -0.3801 C   0  0  0  0  0  0  0  0  0  0  0  0
   -5.4086    1.1490   -1.0520 C   0  0  0  0  0  0  0  0  0  0  0  0
   -5.4146    1.3078   -2.9481 Br  0  0  0  0  0  0  0  0  0  0  0  0
   -1.7006   -1.0202    0.0901 C   0  0  0  0  0  0  0  0  0  0  0  0
   -2.5087   -2.1522    0.2712 C   0  0  0  0  0  0  0  0  0  0  0  0
   -1.8653   -3.1374    0.9182 N   0  0  0  0  0  0  0  0  0  0  0  0
   -0.6251   -2.6314    1.1302 N   0  0  0  0  0  0  0  0  0  0  0  0
    0.3574   -3.4444    1.8004 C   0  0  0  0  0  0  0  0  0  0  0  0
   -0.5003   -1.3699    0.6418 C   0  0  0  0  0  0  0  0  0  0  0  0
    1.4683   -0.7860    0.9734 H   0  0  0  0  0  0  0  0  0  0  0  0
    3.0831    2.3844    0.6452 H   0  0  0  0  0  0  0  0  0  0  0  0
    2.6468    0.8668    1.3948 H   0  0  0  0  0  0  0  0  0  0  0  0
    3.6494    1.2829   -1.4848 H   0  0  0  0  0  0  0  0  0  0  0  0
    3.0556   -0.2587   -0.8967 H   0  0  0  0  0  0  0  0  0  0  0  0
    4.8296   -0.2907    0.8723 H   0  0  0  0  0  0  0  0  0  0  0  0
    5.8623    2.2300   -0.5357 H   0  0  0  0  0  0  0  0  0  0  0  0
    5.3084    2.1125    1.1449 H   0  0  0  0  0  0  0  0  0  0  0  0
    6.7767    1.2767    0.6449 H   0  0  0  0  0  0  0  0  0  0  0  0
    5.8665    0.0255   -1.9939 H   0  0  0  0  0  0  0  0  0  0  0  0
    5.1610   -1.4447   -1.2984 H   0  0  0  0  0  0  0  0  0  0  0  0
    6.6930   -0.8209   -0.6737 H   0  0  0  0  0  0  0  0  0  0  0  0
   -2.9162    1.3422   -1.7495 H   0  0  0  0  0  0  0  0  0  0  0  0
   -3.4251    0.5078    1.6455 H   0  0  0  0  0  0  0  0  0  0  0  0
   -5.5465    0.8660    2.8035 H   0  0  0  0  0  0  0  0  0  0  0  0
   -7.6039    1.4196    1.5337 H   0  0  0  0  0  0  0  0  0  0  0  0
   -7.5225    1.6042   -0.9298 H   0  0  0  0  0  0  0  0  0  0  0  0
   -3.5354   -2.3079   -0.0346 H   0  0  0  0  0  0  0  0  0  0  0  0
    1.2720   -2.8692    1.9582 H   0  0  0  0  0  0  0  0  0  0  0  0
    0.5682   -4.3145    1.1737 H   0  0  0  0  0  0  0  0  0  0  0  0
   -0.0519   -3.7571    2.7644 H   0  0  0  0  0  0  0  0  0  0  0  0
  1  2  1  0
  2  3  2  3
  3  4  1  0
  4  5  1  0
  5  6  1  0
  6  7  1  0
  6  8  1  0
  2  9  1  0
  9 10  2  0
 10 11  1  0
 11 12  1  0
 12 13  2  0
 13 14  1  0
 14 15  2  0
 15 16  1  0
 16 17  2  0
 17 18  1  0
 10 19  1  0
 19 20  1  0
 20 21  2  0
 21 22  1  0
 22 23  1  0
 22 24  1  0
 24  1  1  0
 17 12  1  0
 24 19  2  0
  1 25  1  0
  4 26  1  0
  4 27  1  0
  5 28  1  0
  5 29  1  0
  6 30  1  0
  7 31  1  0
  7 32  1  0
  7 33  1  0
  8 34  1  0
  8 35  1  0
  8 36  1  0
 11 37  1  0
 13 38  1  0
 14 39  1  0
 15 40  1  0
 16 41  1  0
 20 42  1  0
 23 43  1  0
 23 44  1  0
 23 45  1  0
M  END
>  <ScrubInfo>  (4) 
{"isomerGroup": 0, "isomerId": 3, "confId": 0, "nr_conformers:": 1, "nr_isomers:": 9}

$$$$
_i4
     RDKit          3D

 45 47  0  0  0  0  0  0  0  0999 V2000
   -3.3502   -2.5474   -0.5677 N   0  0  0  0  0  0  0  0  0  0  0  0
   -3.1620   -1.2500   -0.1022 C   0  0  0  0  0  0  0  0  0  0  0  0
   -1.8851   -0.9696    0.2004 C   0  0  0  0  0  0  0  0  0  0  0  0
   -1.0882    0.1334    0.7214 C   0  0  0  0  0  0  0  0  0  0  0  0
   -1.4149    1.3515    1.0001 N   0  0  0  0  0  0  0  0  0  0  0  0
   -2.7221    1.8111    0.7917 C   0  0  0  0  0  0  0  0  0  0  0  0
   -3.6047    1.8194    1.8792 C   0  0  0  0  0  0  0  0  0  0  0  0
   -4.9130    2.2868    1.7373 C   0  0  0  0  0  0  0  0  0  0  0  0
   -5.3504    2.7674    0.5049 C   0  0  0  0  0  0  0  0  0  0  0  0
   -4.4783    2.7882   -0.5838 C   0  0  0  0  0  0  0  0  0  0  0  0
   -3.1680    2.3196   -0.4399 C   0  0  0  0  0  0  0  0  0  0  0  0
   -2.0301    2.3811   -1.9597 Br  0  0  0  0  0  0  0  0  0  0  0  0
    0.2214   -0.1912    0.9492 N   0  0  0  0  0  0  0  0  0  0  0  0
    0.7371   -1.3428    0.6483 C   0  0  0  0  0  0  0  0  0  0  0  0
    2.0552   -1.6035    0.8908 N   0  0  0  0  0  0  0  0  0  0  0  0
    3.0444   -0.5660    1.1009 C   0  0  0  0  0  0  0  0  0  0  0  0
    3.4485    0.0689   -0.2319 C   0  0  0  0  0  0  0  0  0  0  0  0
    4.4155    1.2566   -0.0756 C   0  0  0  0  0  0  0  0  0  0  0  0
    5.7559    0.8424    0.5329 C   0  0  0  0  0  0  0  0  0  0  0  0
    4.6485    1.9186   -1.4359 C   0  0  0  0  0  0  0  0  0  0  0  0
    0.0632   -2.3857    0.0722 N   0  0  0  0  0  0  0  0  0  0  0  0
   -1.1938   -2.2235   -0.1530 C   0  0  0  0  0  0  0  0  0  0  0  0
   -2.0976   -3.1259   -0.7169 N   0  0  0  0  0  0  0  0  0  0  0  0
   -1.9521   -4.5537   -0.5071 C   0  0  0  0  0  0  0  0  0  0  0  0
   -3.9672   -2.5977   -1.3819 H   0  0  0  0  0  0  0  0  0  0  0  0
   -4.0244   -0.6042   -0.0316 H   0  0  0  0  0  0  0  0  0  0  0  0
   -3.2606    1.4624    2.8473 H   0  0  0  0  0  0  0  0  0  0  0  0
   -5.5841    2.2855    2.5928 H   0  0  0  0  0  0  0  0  0  0  0  0
   -6.3664    3.1392    0.3953 H   0  0  0  0  0  0  0  0  0  0  0  0
   -4.8239    3.1795   -1.5373 H   0  0  0  0  0  0  0  0  0  0  0  0
    2.3778   -2.4322    0.4085 H   0  0  0  0  0  0  0  0  0  0  0  0
    2.6700    0.1928    1.7974 H   0  0  0  0  0  0  0  0  0  0  0  0
    3.9154   -1.0289    1.5758 H   0  0  0  0  0  0  0  0  0  0  0  0
    3.8972   -0.6967   -0.8786 H   0  0  0  0  0  0  0  0  0  0  0  0
    2.5470    0.4164   -0.7532 H   0  0  0  0  0  0  0  0  0  0  0  0
    3.9537    2.0012    0.5850 H   0  0  0  0  0  0  0  0  0  0  0  0
    6.2302    0.0487   -0.0542 H   0  0  0  0  0  0  0  0  0  0  0  0
    6.4451    1.6931    0.5694 H   0  0  0  0  0  0  0  0  0  0  0  0
    5.6336    0.4820    1.5587 H   0  0  0  0  0  0  0  0  0  0  0  0
    3.7029    2.2619   -1.8691 H   0  0  0  0  0  0  0  0  0  0  0  0
    5.1128    1.2224   -2.1427 H   0  0  0  0  0  0  0  0  0  0  0  0
    5.3045    2.7901   -1.3378 H   0  0  0  0  0  0  0  0  0  0  0  0
   -2.6975   -5.1022   -1.0922 H   0  0  0  0  0  0  0  0  0  0  0  0
   -2.0839   -4.8076    0.5499 H   0  0  0  0  0  0  0  0  0  0  0  0
   -0.9615   -4.8915   -0.8281 H   0  0  0  0  0  0  0  0  0  0  0  0
  1  2  1  0
  2  3  2  0
  3  4  1  0
  4  5  2  3
  5  6  1  0
  6  7  2  0
  7  8  1  0
  8  9  2  0
  9 10  1  0
 10 11  2  0
 11 12  1  0
  4 13  1  0
 13 14  2  0
 14 15  1  0
 15 16  1  0
 16 17  1  0
 17 18  1  0
 18 19  1  0
 18 20  1  0
 14 21  1  0
 21 22  2  0
 22 23  1  0
 23 24  1  0
 23  1  1  0
 22  3  1  0
 11  6  1  0
  1 25  1  0
  2 26  1  0
  7 27  1  0
  8 28  1  0
  9 29  1  0
 10 30  1  0
 15 31  1  0
 16 32  1  0
 16 33  1  0
 17 34  1  0
 17 35  1  0
 18 36  1  0
 19 37  1  0
 19 38  1  0
 19 39  1  0
 20 40  1  0
 20 41  1  0
 20 42  1  0
 24 43  1  0
 24 44  1  0
 24 45  1  0
M  END
>  <ScrubInfo>  (5) 
{"isomerGroup": 0, "isomerId": 4, "confId": 0, "nr_conformers:": 1, "nr_isomers:": 9}

$$$$
_i5
     RDKit          3D

 45 47  0  0  0  0  0  0  0  0999 V2000
    0.3847    0.7544   -0.2903 N   0  0  0  0  0  0  0  0  0  0  0  0
    0.5567   -0.3943    0.4398 C   0  0  0  0  0  0  0  0  0  0  0  0
    1.8570   -0.7429    0.6696 N   0  0  0  0  0  0  0  0  0  0  0  0
    2.7901   -0.9421   -0.4323 C   0  0  0  0  0  0  0  0  0  0  0  0
    4.1899   -1.2540    0.1024 C   0  0  0  0  0  0  0  0  0  0  0  0
    4.8216   -0.1407    0.9625 C   0  0  0  0  0  0  0  0  0  0  0  0
    6.1842   -0.6033    1.4857 C   0  0  0  0  0  0  0  0  0  0  0  0
    4.9817    1.1723    0.1951 C   0  0  0  0  0  0  0  0  0  0  0  0
   -0.3978   -1.1301    0.9320 N   0  0  0  0  0  0  0  0  0  0  0  0
   -1.7245   -0.7866    0.6986 C   0  0  0  0  0  0  0  0  0  0  0  0
   -2.6103   -1.6229    1.1384 N   0  0  0  0  0  0  0  0  0  0  0  0
   -3.9841   -1.4319    0.9539 C   0  0  0  0  0  0  0  0  0  0  0  0
   -4.7222   -0.8582    1.9972 C   0  0  0  0  0  0  0  0  0  0  0  0
   -6.1010   -0.6700    1.8805 C   0  0  0  0  0  0  0  0  0  0  0  0
   -6.7624   -1.0706    0.7214 C   0  0  0  0  0  0  0  0  0  0  0  0
   -6.0479   -1.6680   -0.3173 C   0  0  0  0  0  0  0  0  0  0  0  0
   -4.6669   -1.8564   -0.1988 C   0  0  0  0  0  0  0  0  0  0  0  0
   -3.7551   -2.6871   -1.6435 Br  0  0  0  0  0  0  0  0  0  0  0  0
   -1.9576    0.4657   -0.0036 C   0  0  0  0  0  0  0  0  0  0  0  0
   -3.0536    1.2648   -0.3770 C   0  0  0  0  0  0  0  0  0  0  0  0
   -2.6882    2.3859   -1.0200 N   0  0  0  0  0  0  0  0  0  0  0  0
   -1.3393    2.3050   -1.0635 N   0  0  0  0  0  0  0  0  0  0  0  0
   -0.5937    3.3599   -1.7009 C   0  0  0  0  0  0  0  0  0  0  0  0
   -0.8785    1.1766   -0.4658 C   0  0  0  0  0  0  0  0  0  0  0  0
    1.1992    1.3400   -0.4142 H   0  0  0  0  0  0  0  0  0  0  0  0
    1.8454   -1.5657    1.2725 H   0  0  0  0  0  0  0  0  0  0  0  0
    2.4464   -1.7862   -1.0421 H   0  0  0  0  0  0  0  0  0  0  0  0
    2.8222   -0.0663   -1.0880 H   0  0  0  0  0  0  0  0  0  0  0  0
    4.8451   -1.4693   -0.7514 H   0  0  0  0  0  0  0  0  0  0  0  0
    4.1420   -2.1759    0.6971 H   0  0  0  0  0  0  0  0  0  0  0  0
    4.1808    0.0478    1.8327 H   0  0  0  0  0  0  0  0  0  0  0  0
    6.0841   -1.5225    2.0727 H   0  0  0  0  0  0  0  0  0  0  0  0
    6.8804   -0.7996    0.6632 H   0  0  0  0  0  0  0  0  0  0  0  0
    6.6314    0.1579    2.1338 H   0  0  0  0  0  0  0  0  0  0  0  0
    4.0101    1.5977   -0.0738 H   0  0  0  0  0  0  0  0  0  0  0  0
    5.5586    1.0270   -0.7245 H   0  0  0  0  0  0  0  0  0  0  0  0
    5.5023    1.9180    0.8058 H   0  0  0  0  0  0  0  0  0  0  0  0
   -4.2122   -0.5595    2.9102 H   0  0  0  0  0  0  0  0  0  0  0  0
   -6.6573   -0.2184    2.6982 H   0  0  0  0  0  0  0  0  0  0  0  0
   -7.8365   -0.9279    0.6307 H   0  0  0  0  0  0  0  0  0  0  0  0
   -6.5748   -1.9890   -1.2123 H   0  0  0  0  0  0  0  0  0  0  0  0
   -4.1094    1.1031   -0.2105 H   0  0  0  0  0  0  0  0  0  0  0  0
    0.4521    3.0641   -1.8081 H   0  0  0  0  0  0  0  0  0  0  0  0
   -1.0247    3.5436   -2.6885 H   0  0  0  0  0  0  0  0  0  0  0  0
   -0.6681    4.2552   -1.0788 H   0  0  0  0  0  0  0  0  0  0  0  0
  1  2  1  0
  2  3  1  0
  3  4  1  0
  4  5  1  0
  5  6  1  0
  6  7  1  0
  6  8  1  0
  2  9  2  0
  9 10  1  0
 10 11  2  3
 11 12  1  0
 12 13  2  0
 13 14  1  0
 14 15  2  0
 15 16  1  0
 16 17  2  0
 17 18  1  0
 10 19  1  0
 19 20  1  0
 20 21  2  0
 21 22  1  0
 22 23  1  0
 22 24  1  0
 24  1  1  0
 17 12  1  0
 24 19  2  0
  1 25  1  0
  3 26  1  0
  4 27  1  0
  4 28  1  0
  5 29  1  0
  5 30  1  0
  6 31  1  0
  7 32  1  0
  7 33  1  0
  7 34  1  0
  8 35  1  0
  8 36  1  0
  8 37  1  0
 13 38  1  0
 14 39  1  0
 15 40  1  0
 16 41  1  0
 20 42  1  0
 23 43  1  0
 23 44  1  0
 23 45  1  0
M  END
>  <ScrubInfo>  (6) 
{"isomerGroup": 0, "isomerId": 5, "confId": 0, "nr_conformers:": 1, "nr_isomers:": 9}

$$$$
_i6
     RDKit          3D

 45 47  0  0  0  0  0  0  0  0999 V2000
   -3.4396    2.9990    0.6191 N   0  0  0  0  0  0  0  0  0  0  0  0
   -3.2216    1.8548   -0.1410 C   0  0  0  0  0  0  0  0  0  0  0  0
   -1.9424    1.4561   -0.1318 C   0  0  0  0  0  0  0  0  0  0  0  0
   -1.1176    0.3847   -0.6874 C   0  0  0  0  0  0  0  0  0  0  0  0
   -1.6025   -0.6074   -1.5072 N   0  0  0  0  0  0  0  0  0  0  0  0
   -2.6760   -1.4881   -1.2206 C   0  0  0  0  0  0  0  0  0  0  0  0
   -3.2694   -1.5661    0.0484 C   0  0  0  0  0  0  0  0  0  0  0  0
   -4.3423   -2.4297    0.2930 C   0  0  0  0  0  0  0  0  0  0  0  0
   -4.8422   -3.2338   -0.7271 C   0  0  0  0  0  0  0  0  0  0  0  0
   -4.2663   -3.1815   -1.9938 C   0  0  0  0  0  0  0  0  0  0  0  0
   -3.1930   -2.3181   -2.2365 C   0  0  0  0  0  0  0  0  0  0  0  0
   -2.4529   -2.3029   -3.9894 Br  0  0  0  0  0  0  0  0  0  0  0  0
    0.1633    0.3987   -0.4375 N   0  0  0  0  0  0  0  0  0  0  0  0
    0.6734    1.3805    0.3897 C   0  0  0  0  0  0  0  0  0  0  0  0
    1.9125    1.3370    0.7324 N   0  0  0  0  0  0  0  0  0  0  0  0
    2.7243    0.2352    0.2180 C   0  0  0  0  0  0  0  0  0  0  0  0
    4.1452    0.4047    0.7633 C   0  0  0  0  0  0  0  0  0  0  0  0
    5.1542   -0.6733    0.3257 C   0  0  0  0  0  0  0  0  0  0  0  0
    5.3737   -0.6855   -1.1870 C   0  0  0  0  0  0  0  0  0  0  0  0
    4.7683   -2.0672    0.8207 C   0  0  0  0  0  0  0  0  0  0  0  0
   -0.0102    2.4501    0.9170 N   0  0  0  0  0  0  0  0  0  0  0  0
   -1.2688    2.5088    0.6571 C   0  0  0  0  0  0  0  0  0  0  0  0
   -2.1994    3.4799    1.0260 N   0  0  0  0  0  0  0  0  0  0  0  0
   -2.0848    4.1844    2.2881 C   0  0  0  0  0  0  0  0  0  0  0  0
   -4.0524    3.6784    0.1616 H   0  0  0  0  0  0  0  0  0  0  0  0
   -4.0538    1.4001   -0.6597 H   0  0  0  0  0  0  0  0  0  0  0  0
   -0.8519   -1.1243   -1.9619 H   0  0  0  0  0  0  0  0  0  0  0  0
   -2.8921   -0.9800    0.8826 H   0  0  0  0  0  0  0  0  0  0  0  0
   -4.7816   -2.4780    1.2871 H   0  0  0  0  0  0  0  0  0  0  0  0
   -5.6749   -3.9059   -0.5337 H   0  0  0  0  0  0  0  0  0  0  0  0
   -4.6580   -3.8163   -2.7847 H   0  0  0  0  0  0  0  0  0  0  0  0
    2.3129   -0.7242    0.5503 H   0  0  0  0  0  0  0  0  0  0  0  0
    2.7433    0.2593   -0.8771 H   0  0  0  0  0  0  0  0  0  0  0  0
    4.1046    0.4259    1.8606 H   0  0  0  0  0  0  0  0  0  0  0  0
    4.5268    1.3892    0.4611 H   0  0  0  0  0  0  0  0  0  0  0  0
    6.1143   -0.4158    0.7924 H   0  0  0  0  0  0  0  0  0  0  0  0
    5.6357    0.3133   -1.5513 H   0  0  0  0  0  0  0  0  0  0  0  0
    4.4829   -1.0243   -1.7255 H   0  0  0  0  0  0  0  0  0  0  0  0
    6.1946   -1.3617   -1.4495 H   0  0  0  0  0  0  0  0  0  0  0  0
    5.5720   -2.7826    0.6155 H   0  0  0  0  0  0  0  0  0  0  0  0
    3.8634   -2.4383    0.3292 H   0  0  0  0  0  0  0  0  0  0  0  0
    4.5944   -2.0629    1.9017 H   0  0  0  0  0  0  0  0  0  0  0  0
   -2.8431    4.9712    2.3550 H   0  0  0  0  0  0  0  0  0  0  0  0
   -2.2206    3.4978    3.1302 H   0  0  0  0  0  0  0  0  0  0  0  0
   -1.1023    4.6589    2.3773 H   0  0  0  0  0  0  0  0  0  0  0  0
  1  2  1  0
  2  3  2  0
  3  4  1  0
  4  5  1  0
  5  6  1  0
  6  7  2  0
  7  8  1  0
  8  9  2  0
  9 10  1  0
 10 11  2  0
 11 12  1  0
  4 13  2  0
 13 14  1  0
 14 15  2  3
 15 16  1  0
 16 17  1  0
 17 18  1  0
 18 19  1  0
 18 20  1  0
 14 21  1  0
 21 22  2  0
 22 23  1  0
 23 24  1  0
 23  1  1  0
 22  3  1  0
 11  6  1  0
  1 25  1  0
  2 26  1  0
  5 27  1  0
  7 28  1  0
  8 29  1  0
  9 30  1  0
 10 31  1  0
 16 32  1  0
 16 33  1  0
 17 34  1  0
 17 35  1  0
 18 36  1  0
 19 37  1  0
 19 38  1  0
 19 39  1  0
 20 40  1  0
 20 41  1  0
 20 42  1  0
 24 43  1  0
 24 44  1  0
 24 45  1  0
M  END
>  <ScrubInfo>  (7) 
{"isomerGroup": 0, "isomerId": 6, "confId": 0, "nr_conformers:": 1, "nr_isomers:": 9}

$$$$
_i7
     RDKit          3D

 45 47  0  0  0  0  0  0  0  0999 V2000
   -1.3273   -4.0212   -0.4190 N   0  0  0  0  0  0  0  0  0  0  0  0
   -2.3214   -3.0499   -0.3617 C   0  0  0  0  0  0  0  0  0  0  0  0
   -1.8440   -1.8318   -0.0811 C   0  0  0  0  0  0  0  0  0  0  0  0
   -2.3583   -0.4688    0.0709 C   0  0  0  0  0  0  0  0  0  0  0  0
   -3.6353   -0.2550   -0.0450 N   0  0  0  0  0  0  0  0  0  0  0  0
   -4.1171    1.0559    0.1170 C   0  0  0  0  0  0  0  0  0  0  0  0
   -4.2741    1.8557   -1.0214 C   0  0  0  0  0  0  0  0  0  0  0  0
   -4.7489    3.1647   -0.9160 C   0  0  0  0  0  0  0  0  0  0  0  0
   -5.0831    3.6858    0.3322 C   0  0  0  0  0  0  0  0  0  0  0  0
   -4.9494    2.8971    1.4752 C   0  0  0  0  0  0  0  0  0  0  0  0
   -4.4740    1.5864    1.3679 C   0  0  0  0  0  0  0  0  0  0  0  0
   -4.3177    0.5611    2.9591 Br  0  0  0  0  0  0  0  0  0  0  0  0
   -1.3575    0.4358    0.3211 N   0  0  0  0  0  0  0  0  0  0  0  0
   -0.0192    0.1654    0.4312 C   0  0  0  0  0  0  0  0  0  0  0  0
    0.7849    1.1593    0.6253 N   0  0  0  0  0  0  0  0  0  0  0  0
    2.2189    0.8837    0.7587 C   0  0  0  0  0  0  0  0  0  0  0  0
    2.8798    0.9243   -0.6212 C   0  0  0  0  0  0  0  0  0  0  0  0
    4.3837    0.5943   -0.6400 C   0  0  0  0  0  0  0  0  0  0  0  0
    4.6623   -0.8523   -0.2298 C   0  0  0  0  0  0  0  0  0  0  0  0
    5.2050    1.5609    0.2124 C   0  0  0  0  0  0  0  0  0  0  0  0
    0.4740   -1.1203    0.3335 N   0  0  0  0  0  0  0  0  0  0  0  0
   -0.3794   -2.0697    0.1083 C   0  0  0  0  0  0  0  0  0  0  0  0
   -0.1282   -3.4391   -0.0115 N   0  0  0  0  0  0  0  0  0  0  0  0
    1.1181   -3.9219   -0.5745 C   0  0  0  0  0  0  0  0  0  0  0  0
   -1.5873   -4.8897    0.0542 H   0  0  0  0  0  0  0  0  0  0  0  0
   -3.3522   -3.3257   -0.5345 H   0  0  0  0  0  0  0  0  0  0  0  0
   -4.0258    1.4500   -1.9993 H   0  0  0  0  0  0  0  0  0  0  0  0
   -4.8634    3.7736   -1.8096 H   0  0  0  0  0  0  0  0  0  0  0  0
   -5.4562    4.7040    0.4149 H   0  0  0  0  0  0  0  0  0  0  0  0
   -5.2218    3.3097    2.4434 H   0  0  0  0  0  0  0  0  0  0  0  0
   -1.5896    1.4115    0.4243 H   0  0  0  0  0  0  0  0  0  0  0  0
    2.4133   -0.0576    1.2834 H   0  0  0  0  0  0  0  0  0  0  0  0
    2.6412    1.6704    1.3936 H   0  0  0  0  0  0  0  0  0  0  0  0
    2.3628    0.2315   -1.2976 H   0  0  0  0  0  0  0  0  0  0  0  0
    2.7310    1.9235   -1.0520 H   0  0  0  0  0  0  0  0  0  0  0  0
    4.7197    0.7076   -1.6793 H   0  0  0  0  0  0  0  0  0  0  0  0
    4.4381   -1.0280    0.8269 H   0  0  0  0  0  0  0  0  0  0  0  0
    5.7180   -1.0984   -0.3882 H   0  0  0  0  0  0  0  0  0  0  0  0
    4.0649   -1.5492   -0.8269 H   0  0  0  0  0  0  0  0  0  0  0  0
    4.9990    2.5991   -0.0677 H   0  0  0  0  0  0  0  0  0  0  0  0
    4.9915    1.4446    1.2797 H   0  0  0  0  0  0  0  0  0  0  0  0
    6.2764    1.3832    0.0687 H   0  0  0  0  0  0  0  0  0  0  0  0
    1.2037   -3.6395   -1.6290 H   0  0  0  0  0  0  0  0  0  0  0  0
    1.1719   -5.0129   -0.5008 H   0  0  0  0  0  0  0  0  0  0  0  0
    1.9732   -3.5079   -0.0304 H   0  0  0  0  0  0  0  0  0  0  0  0
  1  2  1  0
  2  3  2  0
  3  4  1  0
  4  5  2  3
  5  6  1  0
  6  7  2  0
  7  8  1  0
  8  9  2  0
  9 10  1  0
 10 11  2  0
 11 12  1  0
  4 13  1  0
 13 14  1  0
 14 15  2  3
 15 16  1  0
 16 17  1  0
 17 18  1  0
 18 19  1  0
 18 20  1  0
 14 21  1  0
 21 22  2  0
 22 23  1  0
 23 24  1  0
 23  1  1  0
 22  3  1  0
 11  6  1  0
  1 25  1  0
  2 26  1  0
  7 27  1  0
  8 28  1  0
  9 29  1  0
 10 30  1  0
 13 31  1  0
 16 32  1  0
 16 33  1  0
 17 34  1  0
 17 35  1  0
 18 36  1  0
 19 37  1  0
 19 38  1  0
 19 39  1  0
 20 40  1  0
 20 41  1  0
 20 42  1  0
 24 43  1  0
 24 44  1  0
 24 45  1  0
M  END
>  <ScrubInfo>  (8) 
{"isomerGroup": 0, "isomerId": 7, "confId": 0, "nr_conformers:": 1, "nr_isomers:": 9}

$$$$
_i8
     RDKit          3D

 45 47  0  0  0  0  0  0  0  0999 V2000
    0.3853   -0.8917   -0.8598 N   0  0  0  0  0  0  0  0  0  0  0  0
    0.7671    0.2678   -0.2060 C   0  0  0  0  0  0  0  0  0  0  0  0
    1.9511    0.7712   -0.1122 N   0  0  0  0  0  0  0  0  0  0  0  0
    3.0600    0.0722   -0.7518 C   0  0  0  0  0  0  0  0  0  0  0  0
    4.3589    0.8368   -0.4849 C   0  0  0  0  0  0  0  0  0  0  0  0
    4.7475    0.9608    1.0022 C   0  0  0  0  0  0  0  0  0  0  0  0
    6.0145    1.8101    1.1351 C   0  0  0  0  0  0  0  0  0  0  0  0
    4.9664   -0.3997    1.6652 C   0  0  0  0  0  0  0  0  0  0  0  0
   -0.2818    0.9229    0.3998 N   0  0  0  0  0  0  0  0  0  0  0  0
   -1.6285    0.6391    0.4663 C   0  0  0  0  0  0  0  0  0  0  0  0
   -2.4491    1.4248    1.0968 N   0  0  0  0  0  0  0  0  0  0  0  0
   -3.8265    1.1776    1.1591 C   0  0  0  0  0  0  0  0  0  0  0  0
   -4.3336    0.4909    2.2695 C   0  0  0  0  0  0  0  0  0  0  0  0
   -5.7028    0.2459    2.3953 C   0  0  0  0  0  0  0  0  0  0  0  0
   -6.5845    0.7012    1.4171 C   0  0  0  0  0  0  0  0  0  0  0  0
   -6.0998    1.4092    0.3170 C   0  0  0  0  0  0  0  0  0  0  0  0
   -4.7285    1.6539    0.1924 C   0  0  0  0  0  0  0  0  0  0  0  0
   -4.1313    2.6331   -1.3218 Br  0  0  0  0  0  0  0  0  0  0  0  0
   -1.9304   -0.5972   -0.2368 C   0  0  0  0  0  0  0  0  0  0  0  0
   -3.0629   -1.3925   -0.4931 C   0  0  0  0  0  0  0  0  0  0  0  0
   -2.7805   -2.4858   -1.2173 N   0  0  0  0  0  0  0  0  0  0  0  0
   -1.4526   -2.3890   -1.4416 N   0  0  0  0  0  0  0  0  0  0  0  0
   -0.7907   -3.4153   -2.2070 C   0  0  0  0  0  0  0  0  0  0  0  0
   -0.9096   -1.2844   -0.8600 C   0  0  0  0  0  0  0  0  0  0  0  0
    1.1124   -1.4157   -1.3265 H   0  0  0  0  0  0  0  0  0  0  0  0
    3.1445   -0.9569   -0.3868 H   0  0  0  0  0  0  0  0  0  0  0  0
    2.9016    0.0338   -1.8365 H   0  0  0  0  0  0  0  0  0  0  0  0
    5.1708    0.3424   -1.0335 H   0  0  0  0  0  0  0  0  0  0  0  0
    4.2632    1.8447   -0.9098 H   0  0  0  0  0  0  0  0  0  0  0  0
    3.9446    1.4788    1.5410 H   0  0  0  0  0  0  0  0  0  0  0  0
    6.8630    1.3416    0.6248 H   0  0  0  0  0  0  0  0  0  0  0  0
    5.8640    2.8043    0.7011 H   0  0  0  0  0  0  0  0  0  0  0  0
    6.2844    1.9446    2.1880 H   0  0  0  0  0  0  0  0  0  0  0  0
    4.0378   -0.9769    1.7061 H   0  0  0  0  0  0  0  0  0  0  0  0
    5.3157   -0.2774    2.6963 H   0  0  0  0  0  0  0  0  0  0  0  0
    5.7133   -0.9899    1.1237 H   0  0  0  0  0  0  0  0  0  0  0  0
   -0.0148    1.7774    0.8671 H   0  0  0  0  0  0  0  0  0  0  0  0
   -3.6517    0.1457    3.0428 H   0  0  0  0  0  0  0  0  0  0  0  0
   -6.0795   -0.2944    3.2604 H   0  0  0  0  0  0  0  0  0  0  0  0
   -7.6510    0.5133    1.5156 H   0  0  0  0  0  0  0  0  0  0  0  0
   -6.7968    1.7703   -0.4350 H   0  0  0  0  0  0  0  0  0  0  0  0
   -4.0895   -1.2441   -0.1891 H   0  0  0  0  0  0  0  0  0  0  0  0
    0.0702   -2.9850   -2.7236 H   0  0  0  0  0  0  0  0  0  0  0  0
   -1.4899   -3.8192   -2.9440 H   0  0  0  0  0  0  0  0  0  0  0  0
   -0.4698   -4.1997   -1.5174 H   0  0  0  0  0  0  0  0  0  0  0  0
  1  2  1  0
  2  3  2  3
  3  4  1  0
  4  5  1  0
  5  6  1  0
  6  7  1  0
  6  8  1  0
  2  9  1  0
  9 10  1  0
 10 11  2  3
 11 12  1  0
 12 13  2  0
 13 14  1  0
 14 15  2  0
 15 16  1  0
 16 17  2  0
 17 18  1  0
 10 19  1  0
 19 20  1  0
 20 21  2  0
 21 22  1  0
 22 23  1  0
 22 24  1  0
 24  1  1  0
 17 12  1  0
 24 19  2  0
  1 25  1  0
  4 26  1  0
  4 27  1  0
  5 28  1  0
  5 29  1  0
  6 30  1  0
  7 31  1  0
  7 32  1  0
  7 33  1  0
  8 34  1  0
  8 35  1  0
  8 36  1  0
  9 37  1  0
 13 38  1  0
 14 39  1  0
 15 40  1  0
 16 41  1  0
 20 42  1  0
 23 43  1  0
 23 44  1  0
 23 45  1  0
M  END
>  <ScrubInfo>  (9) 
{"isomerGroup": 0, "isomerId": 8, "confId": 0, "nr_conformers:": 1, "nr_isomers:": 9}

$$$$
