REMARK SMILES CC(C)CCNc1nc(Nc2ccccc2Br)c2cnn(C)c2n1
REMARK SMILES IDX 6 1 5 3 4 4 2 5 1 6 3 7 7 8 8 9 24 10 9 11 23 12 18 13 21 14
REMARK SMILES IDX 19 15 20 16 22 17 10 18 11 20 12 21 16 22 13 23 15 24 14 25
REMARK SMILES IDX 17 26
REMARK H PARENT 6 2 10 19
ROOT
ATOM      1  N   UNL     1       1.397  -0.109  -0.837  1.00  0.00    -0.354 N 
ATOM      2  H   UNL     1       2.178  -0.755  -0.823  1.00  0.00     0.163 HD
ENDROOT
BRANCH   1   3
ATOM      3  C   UNL     1       1.559   1.088  -0.029  1.00  0.00     0.116 C 
BRANCH   3   4
ATOM      4  C   UNL     1       2.838   1.835  -0.424  1.00  0.00     0.024 C 
BRANCH   4   5
ATOM      5  C   UNL     1       4.159   1.081  -0.168  1.00  0.00    -0.016 C 
ATOM      6  C   UNL     1       5.340   1.940  -0.629  1.00  0.00     0.007 C 
ATOM      7  C   UNL     1       4.342   0.699   1.302  1.00  0.00     0.007 C 
ENDBRANCH   4   5
ENDBRANCH   3   4
ENDBRANCH   1   3
BRANCH   1   8
ATOM      8  C   UNL     1       0.286  -0.879  -0.501  1.00  0.00     0.226 A 
ATOM      9  N   UNL     1      -0.848  -0.275  -0.098  1.00  0.00    -0.195 NA
ATOM     10  N   UNL     1       0.469  -2.200  -0.610  1.00  0.00    -0.193 NA
ATOM     11  C   UNL     1      -1.948  -1.000   0.235  1.00  0.00     0.147 A 
ATOM     12  C   UNL     1      -0.622  -2.903  -0.277  1.00  0.00     0.165 A 
ATOM     13  C   UNL     1      -1.833  -2.393   0.146  1.00  0.00     0.082 A 
ATOM     14  N   UNL     1      -0.768  -4.264  -0.286  1.00  0.00    -0.250 N 
ATOM     15  C   UNL     1      -2.634  -3.533   0.369  1.00  0.00     0.149 A 
ATOM     16  N   UNL     1      -1.993  -4.678   0.114  1.00  0.00    -0.179 NA
ATOM     17  C   UNL     1       0.223  -5.240  -0.664  1.00  0.00     0.176 C 
BRANCH  11  18
ATOM     18  N   UNL     1      -3.133  -0.394   0.671  1.00  0.00    -0.339 N 
ATOM     19  H   UNL     1      -3.842  -1.046   0.985  1.00  0.00     0.168 HD
BRANCH  18  20
ATOM     20  C   UNL     1      -3.542   0.950   0.784  1.00  0.00     0.054 A 
ATOM     21  C   UNL     1      -2.796   2.021   0.277  1.00  0.00     0.027 A 
ATOM     22  C   UNL     1      -4.746   1.263   1.451  1.00  0.00     0.041 A 
ATOM     23  C   UNL     1      -3.228   3.345   0.423  1.00  0.00     0.002 A 
ATOM     24  C   UNL     1      -5.182   2.584   1.601  1.00  0.00     0.018 A 
ATOM     25  C   UNL     1      -4.418   3.627   1.086  1.00  0.00     0.001 A 
ATOM     26  Br  UNL     1      -5.842  -0.114   2.182  1.00  0.00    -0.049 Br
ENDBRANCH  18  20
ENDBRANCH  11  18
ENDBRANCH   1   8
TORSDOF 6
