_i0
     RDKit          3D

 51 54  0  0  0  0  0  0  0  0999 V2000
    8.6941    1.7886   -0.0112 C   0  0  0  0  0  0  0  0  0  0  0  0
    7.8862    1.2697    1.0373 O   0  0  0  0  0  0  0  0  0  0  0  0
    6.6988    0.6949    0.6767 C   0  0  0  0  0  0  0  0  0  0  0  0
    5.9407    0.2041    1.7416 C   0  0  0  0  0  0  0  0  0  0  0  0
    4.7059   -0.4082    1.5154 C   0  0  0  0  0  0  0  0  0  0  0  0
    4.2102   -0.5444    0.2124 C   0  0  0  0  0  0  0  0  0  0  0  0
    2.8682   -1.1966   -0.0298 C   0  0  0  0  0  0  0  0  0  0  0  0
    1.8203   -0.2937    0.3968 N   0  0  0  0  0  0  0  0  0  0  0  0
    0.5403   -0.6930    0.0414 C   0  0  0  0  0  0  0  0  0  0  0  0
   -0.2991    0.3163   -0.2585 N   0  0  0  0  0  0  0  0  0  0  0  0
   -1.5859    0.0539   -0.5944 C   0  0  0  0  0  0  0  0  0  0  0  0
   -2.4028    1.1592   -0.8986 N   0  0  0  0  0  0  0  0  0  0  0  0
   -3.7405    1.3361   -0.4651 C   0  0  0  0  0  0  0  0  0  0  0  0
   -4.1948    0.9090    0.7858 C   0  0  0  0  0  0  0  0  0  0  0  0
   -5.5011    1.1941    1.2005 C   0  0  0  0  0  0  0  0  0  0  0  0
   -6.3622    1.9450    0.3889 C   0  0  0  0  0  0  0  0  0  0  0  0
   -7.7706    2.2213    0.8249 C   0  0  0  0  0  0  0  0  0  0  0  0
   -5.9059    2.3931   -0.8549 C   0  0  0  0  0  0  0  0  0  0  0  0
   -4.6086    2.0984   -1.2591 C   0  0  0  0  0  0  0  0  0  0  0  0
   -4.1926    2.5528   -2.4822 O   0  0  0  0  0  0  0  0  0  0  0  0
   -1.9881   -1.2812   -0.6536 C   0  0  0  0  0  0  0  0  0  0  0  0
   -3.1412   -2.0284   -0.9693 C   0  0  0  0  0  0  0  0  0  0  0  0
   -2.9532   -3.3483   -0.8487 N   0  0  0  0  0  0  0  0  0  0  0  0
   -1.6620   -3.4421   -0.4547 N   0  0  0  0  0  0  0  0  0  0  0  0
   -1.0871   -4.7416   -0.2146 C   0  0  0  0  0  0  0  0  0  0  0  0
   -1.0383   -2.2304   -0.3339 C   0  0  0  0  0  0  0  0  0  0  0  0
    0.2340   -1.9979    0.0209 N   0  0  0  0  0  0  0  0  0  0  0  0
    4.9697   -0.0427   -0.8531 C   0  0  0  0  0  0  0  0  0  0  0  0
    6.2074    0.5704   -0.6228 C   0  0  0  0  0  0  0  0  0  0  0  0
    9.5982    2.2086    0.4400 H   0  0  0  0  0  0  0  0  0  0  0  0
    9.0036    0.9960   -0.7005 H   0  0  0  0  0  0  0  0  0  0  0  0
    8.1807    2.5971   -0.5421 H   0  0  0  0  0  0  0  0  0  0  0  0
    6.3131    0.3032    2.7583 H   0  0  0  0  0  0  0  0  0  0  0  0
    4.1263   -0.7725    2.3613 H   0  0  0  0  0  0  0  0  0  0  0  0
    2.8322   -2.1405    0.5295 H   0  0  0  0  0  0  0  0  0  0  0  0
    2.7695   -1.4428   -1.0954 H   0  0  0  0  0  0  0  0  0  0  0  0
    1.9292    0.6634    0.0816 H   0  0  0  0  0  0  0  0  0  0  0  0
   -1.8524    1.9751   -0.6223 H   0  0  0  0  0  0  0  0  0  0  0  0
   -3.5423    0.3581    1.4584 H   0  0  0  0  0  0  0  0  0  0  0  0
   -5.8385    0.8349    2.1709 H   0  0  0  0  0  0  0  0  0  0  0  0
   -8.1297    3.1688    0.4096 H   0  0  0  0  0  0  0  0  0  0  0  0
   -8.4306    1.4152    0.4898 H   0  0  0  0  0  0  0  0  0  0  0  0
   -7.8334    2.3005    1.9153 H   0  0  0  0  0  0  0  0  0  0  0  0
   -6.5520    2.9696   -1.5114 H   0  0  0  0  0  0  0  0  0  0  0  0
   -3.3180    2.1432   -2.6242 H   0  0  0  0  0  0  0  0  0  0  0  0
   -4.1121   -1.6639   -1.2814 H   0  0  0  0  0  0  0  0  0  0  0  0
   -1.1292   -5.3131   -1.1452 H   0  0  0  0  0  0  0  0  0  0  0  0
   -0.0494   -4.6381    0.1102 H   0  0  0  0  0  0  0  0  0  0  0  0
   -1.6710   -5.2373    0.5652 H   0  0  0  0  0  0  0  0  0  0  0  0
    4.6045   -0.1244   -1.8748 H   0  0  0  0  0  0  0  0  0  0  0  0
    6.7596    0.9404   -1.4800 H   0  0  0  0  0  0  0  0  0  0  0  0
  1  2  1  0
  2  3  1  0
  3  4  2  0
  4  5  1  0
  5  6  2  0
  6  7  1  0
  7  8  1  0
  8  9  1  0
  9 10  2  0
 10 11  1  0
 11 12  1  0
 12 13  1  0
 13 14  2  0
 14 15  1  0
 15 16  2  0
 16 17  1  0
 16 18  1  0
 18 19  2  0
 19 20  1  0
 11 21  2  0
 21 22  1  0
 22 23  2  0
 23 24  1  0
 24 25  1  0
 24 26  1  0
 26 27  2  0
  6 28  1  0
 28 29  2  0
 29  3  1  0
 27  9  1  0
 19 13  1  0
 26 21  1  0
  1 30  1  0
  1 31  1  0
  1 32  1  0
  4 33  1  0
  5 34  1  0
  7 35  1  0
  7 36  1  0
  8 37  1  0
 12 38  1  0
 14 39  1  0
 15 40  1  0
 17 41  1  0
 17 42  1  0
 17 43  1  0
 18 44  1  0
 20 45  1  0
 22 46  1  0
 25 47  1  0
 25 48  1  0
 25 49  1  0
 28 50  1  0
 29 51  1  0
M  END
>  <ScrubInfo>  (1) 
{"isomerGroup": 0, "isomerId": 0, "confId": 0, "nr_conformers:": 1, "nr_isomers:": 9}

$$$$
_i1
     RDKit          3D

 51 54  0  0  0  0  0  0  0  0999 V2000
   -0.9408    0.5993    0.7762 N   0  0  0  0  0  0  0  0  0  0  0  0
   -1.5875   -0.3355    1.5607 C   0  0  0  0  0  0  0  0  0  0  0  0
   -2.8756   -0.7670    1.3306 N   0  0  0  0  0  0  0  0  0  0  0  0
   -3.6808   -0.7050    0.1778 C   0  0  0  0  0  0  0  0  0  0  0  0
   -3.1816   -0.5474   -1.1168 C   0  0  0  0  0  0  0  0  0  0  0  0
   -4.0484   -0.4550   -2.2127 C   0  0  0  0  0  0  0  0  0  0  0  0
   -5.4361   -0.5095   -2.0351 C   0  0  0  0  0  0  0  0  0  0  0  0
   -6.3547   -0.4429   -3.2195 C   0  0  0  0  0  0  0  0  0  0  0  0
   -5.9493   -0.6931   -0.7471 C   0  0  0  0  0  0  0  0  0  0  0  0
   -5.0759   -0.7854    0.3370 C   0  0  0  0  0  0  0  0  0  0  0  0
   -5.5640   -0.9686    1.6089 O   0  0  0  0  0  0  0  0  0  0  0  0
   -0.8722   -0.7749    2.6034 C   0  0  0  0  0  0  0  0  0  0  0  0
   -1.0273   -1.7429    3.6939 C   0  0  0  0  0  0  0  0  0  0  0  0
    0.0369   -1.8394    4.4505 N   0  0  0  0  0  0  0  0  0  0  0  0
    0.9483   -0.9026    3.9342 N   0  0  0  0  0  0  0  0  0  0  0  0
    2.3331   -0.9856    4.3303 C   0  0  0  0  0  0  0  0  0  0  0  0
    0.4986   -0.2536    2.7949 C   0  0  0  0  0  0  0  0  0  0  0  0
    1.0891    0.6068    2.0370 N   0  0  0  0  0  0  0  0  0  0  0  0
    0.3273    1.0747    0.9887 C   0  0  0  0  0  0  0  0  0  0  0  0
    0.7835    1.9807    0.1898 N   0  0  0  0  0  0  0  0  0  0  0  0
    2.1393    2.4814    0.4084 C   0  0  0  0  0  0  0  0  0  0  0  0
    3.1620    1.7404   -0.4197 C   0  0  0  0  0  0  0  0  0  0  0  0
    4.0213    0.8085    0.1717 C   0  0  0  0  0  0  0  0  0  0  0  0
    4.9564    0.1189   -0.6039 C   0  0  0  0  0  0  0  0  0  0  0  0
    5.0442    0.3410   -1.9800 C   0  0  0  0  0  0  0  0  0  0  0  0
    6.0017   -0.3987   -2.6190 O   0  0  0  0  0  0  0  0  0  0  0  0
    6.1273   -0.2075   -4.0221 C   0  0  0  0  0  0  0  0  0  0  0  0
    4.1811    1.2594   -2.5778 C   0  0  0  0  0  0  0  0  0  0  0  0
    3.2437    1.9511   -1.8021 C   0  0  0  0  0  0  0  0  0  0  0  0
   -1.4848    1.0755    0.0735 H   0  0  0  0  0  0  0  0  0  0  0  0
   -3.3938   -1.1348    2.1264 H   0  0  0  0  0  0  0  0  0  0  0  0
   -2.1119   -0.5383   -1.3064 H   0  0  0  0  0  0  0  0  0  0  0  0
   -3.6268   -0.3478   -3.2105 H   0  0  0  0  0  0  0  0  0  0  0  0
   -5.9245    0.1768   -4.0132 H   0  0  0  0  0  0  0  0  0  0  0  0
   -7.3155    0.0044   -2.9436 H   0  0  0  0  0  0  0  0  0  0  0  0
   -6.5322   -1.4488   -3.6123 H   0  0  0  0  0  0  0  0  0  0  0  0
   -7.0231   -0.7642   -0.6021 H   0  0  0  0  0  0  0  0  0  0  0  0
   -6.5350   -0.9516    1.5648 H   0  0  0  0  0  0  0  0  0  0  0  0
   -1.9504   -2.3249    3.8103 H   0  0  0  0  0  0  0  0  0  0  0  0
    2.4188   -1.2785    5.3818 H   0  0  0  0  0  0  0  0  0  0  0  0
    2.8318   -0.0183    4.2119 H   0  0  0  0  0  0  0  0  0  0  0  0
    2.8601   -1.7259    3.7202 H   0  0  0  0  0  0  0  0  0  0  0  0
    2.4320    2.5018    1.4659 H   0  0  0  0  0  0  0  0  0  0  0  0
    2.1586    3.5371    0.1078 H   0  0  0  0  0  0  0  0  0  0  0  0
    3.9595    0.6096    1.2389 H   0  0  0  0  0  0  0  0  0  0  0  0
    5.6187   -0.6018   -0.1316 H   0  0  0  0  0  0  0  0  0  0  0  0
    5.2080   -0.4938   -4.5437 H   0  0  0  0  0  0  0  0  0  0  0  0
    6.4114    0.8236   -4.2568 H   0  0  0  0  0  0  0  0  0  0  0  0
    6.9287   -0.8621   -4.3781 H   0  0  0  0  0  0  0  0  0  0  0  0
    4.2046    1.4594   -3.6431 H   0  0  0  0  0  0  0  0  0  0  0  0
    2.5660    2.6548   -2.2807 H   0  0  0  0  0  0  0  0  0  0  0  0
  1  2  1  0
  2  3  1  0
  3  4  1  0
  4  5  2  0
  5  6  1  0
  6  7  2  0
  7  8  1  0
  7  9  1  0
  9 10  2  0
 10 11  1  0
  2 12  2  0
 12 13  1  0
 13 14  2  0
 14 15  1  0
 15 16  1  0
 15 17  1  0
 17 18  2  0
 18 19  1  0
 19 20  2  3
 20 21  1  0
 21 22  1  0
 22 23  2  0
 23 24  1  0
 24 25  2  0
 25 26  1  0
 26 27  1  0
 25 28  1  0
 28 29  2  0
 19  1  1  0
 29 22  1  0
 10  4  1  0
 17 12  1  0
  1 30  1  0
  3 31  1  0
  5 32  1  0
  6 33  1  0
  8 34  1  0
  8 35  1  0
  8 36  1  0
  9 37  1  0
 11 38  1  0
 13 39  1  0
 16 40  1  0
 16 41  1  0
 16 42  1  0
 21 43  1  0
 21 44  1  0
 23 45  1  0
 24 46  1  0
 27 47  1  0
 27 48  1  0
 27 49  1  0
 28 50  1  0
 29 51  1  0
M  END
>  <ScrubInfo>  (2) 
{"isomerGroup": 0, "isomerId": 1, "confId": 0, "nr_conformers:": 1, "nr_isomers:": 9}

$$$$
_i2
     RDKit          3D

 51 54  0  0  0  0  0  0  0  0999 V2000
   -0.2643    0.4454    0.1442 N   0  0  0  0  0  0  0  0  0  0  0  0
    0.5843   -0.4045   -0.5242 C   0  0  0  0  0  0  0  0  0  0  0  0
    1.9013   -0.0786   -0.3618 N   0  0  0  0  0  0  0  0  0  0  0  0
    2.9434   -0.9306   -0.9072 C   0  0  0  0  0  0  0  0  0  0  0  0
    4.2909   -0.3405   -0.5693 C   0  0  0  0  0  0  0  0  0  0  0  0
    4.7670    0.7799   -1.2618 C   0  0  0  0  0  0  0  0  0  0  0  0
    6.0036    1.3398   -0.9336 C   0  0  0  0  0  0  0  0  0  0  0  0
    6.7832    0.7972    0.0900 C   0  0  0  0  0  0  0  0  0  0  0  0
    7.9694    1.4416    0.3076 O   0  0  0  0  0  0  0  0  0  0  0  0
    8.8138    0.9112    1.3212 C   0  0  0  0  0  0  0  0  0  0  0  0
    6.3114   -0.3138    0.7889 C   0  0  0  0  0  0  0  0  0  0  0  0
    5.0717   -0.8772    0.4634 C   0  0  0  0  0  0  0  0  0  0  0  0
    0.1765   -1.4117   -1.2515 N   0  0  0  0  0  0  0  0  0  0  0  0
   -1.1822   -1.5187   -1.2521 C   0  0  0  0  0  0  0  0  0  0  0  0
   -2.1129   -0.7167   -0.6085 C   0  0  0  0  0  0  0  0  0  0  0  0
   -3.3550   -1.2660   -0.9737 C   0  0  0  0  0  0  0  0  0  0  0  0
   -3.2345   -2.3418   -1.7623 N   0  0  0  0  0  0  0  0  0  0  0  0
   -1.8986   -2.4696   -1.9230 N   0  0  0  0  0  0  0  0  0  0  0  0
   -1.3861   -3.5332   -2.7494 C   0  0  0  0  0  0  0  0  0  0  0  0
   -1.6392    0.4001    0.1849 C   0  0  0  0  0  0  0  0  0  0  0  0
   -2.3253    1.2796    0.8520 N   0  0  0  0  0  0  0  0  0  0  0  0
   -3.7224    1.2098    0.9448 C   0  0  0  0  0  0  0  0  0  0  0  0
   -4.3399    0.4082    1.9059 C   0  0  0  0  0  0  0  0  0  0  0  0
   -5.7353    0.3642    1.9953 C   0  0  0  0  0  0  0  0  0  0  0  0
   -6.5303    1.1282    1.1283 C   0  0  0  0  0  0  0  0  0  0  0  0
   -8.0256    1.1011    1.2467 C   0  0  0  0  0  0  0  0  0  0  0  0
   -5.9109    1.9675    0.1944 C   0  0  0  0  0  0  0  0  0  0  0  0
   -4.5233    2.0057    0.1177 C   0  0  0  0  0  0  0  0  0  0  0  0
   -3.9420    2.8516   -0.7879 O   0  0  0  0  0  0  0  0  0  0  0  0
    0.1384    1.2464    0.6016 H   0  0  0  0  0  0  0  0  0  0  0  0
    2.1491    0.3028    0.5428 H   0  0  0  0  0  0  0  0  0  0  0  0
    2.8467   -1.0138   -1.9966 H   0  0  0  0  0  0  0  0  0  0  0  0
    2.8623   -1.9430   -0.4933 H   0  0  0  0  0  0  0  0  0  0  0  0
    4.1746    1.2246   -2.0592 H   0  0  0  0  0  0  0  0  0  0  0  0
    6.3632    2.2082   -1.4806 H   0  0  0  0  0  0  0  0  0  0  0  0
    8.3331    0.9664    2.3035 H   0  0  0  0  0  0  0  0  0  0  0  0
    9.7182    1.5261    1.3585 H   0  0  0  0  0  0  0  0  0  0  0  0
    9.1177   -0.1142    1.0861 H   0  0  0  0  0  0  0  0  0  0  0  0
    6.8815   -0.7666    1.5933 H   0  0  0  0  0  0  0  0  0  0  0  0
    4.7227   -1.7424    1.0239 H   0  0  0  0  0  0  0  0  0  0  0  0
   -4.3535   -0.9435   -0.7126 H   0  0  0  0  0  0  0  0  0  0  0  0
   -1.7706   -4.4824   -2.3674 H   0  0  0  0  0  0  0  0  0  0  0  0
   -1.7293   -3.3668   -3.7736 H   0  0  0  0  0  0  0  0  0  0  0  0
   -0.2944   -3.5407   -2.7201 H   0  0  0  0  0  0  0  0  0  0  0  0
   -3.7361   -0.1867    2.5853 H   0  0  0  0  0  0  0  0  0  0  0  0
   -6.1988   -0.2703    2.7480 H   0  0  0  0  0  0  0  0  0  0  0  0
   -8.4976    1.2918    0.2771 H   0  0  0  0  0  0  0  0  0  0  0  0
   -8.3721    0.1203    1.5889 H   0  0  0  0  0  0  0  0  0  0  0  0
   -8.3585    1.8627    1.9586 H   0  0  0  0  0  0  0  0  0  0  0  0
   -6.4998    2.5963   -0.4679 H   0  0  0  0  0  0  0  0  0  0  0  0
   -2.9856    2.7966   -0.5976 H   0  0  0  0  0  0  0  0  0  0  0  0
  1  2  1  0
  2  3  1  0
  3  4  1  0
  4  5  1  0
  5  6  2  0
  6  7  1  0
  7  8  2  0
  8  9  1  0
  9 10  1  0
  8 11  1  0
 11 12  2  0
  2 13  2  0
 13 14  1  0
 14 15  2  0
 15 16  1  0
 16 17  2  0
 17 18  1  0
 18 19  1  0
 15 20  1  0
 20 21  2  3
 21 22  1  0
 22 23  2  0
 23 24  1  0
 24 25  2  0
 25 26  1  0
 25 27  1  0
 27 28  2  0
 28 29  1  0
 20  1  1  0
 28 22  1  0
 12  5  1  0
 18 14  1  0
  1 30  1  0
  3 31  1  0
  4 32  1  0
  4 33  1  0
  6 34  1  0
  7 35  1  0
 10 36  1  0
 10 37  1  0
 10 38  1  0
 11 39  1  0
 12 40  1  0
 16 41  1  0
 19 42  1  0
 19 43  1  0
 19 44  1  0
 23 45  1  0
 24 46  1  0
 26 47  1  0
 26 48  1  0
 26 49  1  0
 27 50  1  0
 29 51  1  0
M  END
>  <ScrubInfo>  (3) 
{"isomerGroup": 0, "isomerId": 2, "confId": 0, "nr_conformers:": 1, "nr_isomers:": 9}

$$$$
_i3
     RDKit          3D

 51 54  0  0  0  0  0  0  0  0999 V2000
    0.2067   -1.8046   -1.3077 N   0  0  0  0  0  0  0  0  0  0  0  0
    0.5727   -0.8927   -0.3270 C   0  0  0  0  0  0  0  0  0  0  0  0
    1.7196   -0.3255   -0.2025 N   0  0  0  0  0  0  0  0  0  0  0  0
    2.7771   -0.6326   -1.1571 C   0  0  0  0  0  0  0  0  0  0  0  0
    4.0711    0.0971   -0.8693 C   0  0  0  0  0  0  0  0  0  0  0  0
    4.4121    0.5067    0.4266 C   0  0  0  0  0  0  0  0  0  0  0  0
    5.6310    1.1459    0.6837 C   0  0  0  0  0  0  0  0  0  0  0  0
    6.5344    1.3756   -0.3526 C   0  0  0  0  0  0  0  0  0  0  0  0
    7.7539    1.9849   -0.2390 O   0  0  0  0  0  0  0  0  0  0  0  0
    8.1131    2.4586    1.0527 C   0  0  0  0  0  0  0  0  0  0  0  0
    6.2080    0.9571   -1.6439 C   0  0  0  0  0  0  0  0  0  0  0  0
    4.9909    0.3202   -1.9023 C   0  0  0  0  0  0  0  0  0  0  0  0
   -0.3242   -0.5003    0.6573 N   0  0  0  0  0  0  0  0  0  0  0  0
   -1.5388   -0.9686    0.6535 C   0  0  0  0  0  0  0  0  0  0  0  0
   -2.4817   -0.6613    1.5957 N   0  0  0  0  0  0  0  0  0  0  0  0
   -3.5647    0.2388    1.3720 C   0  0  0  0  0  0  0  0  0  0  0  0
   -4.0457    0.5860    0.1065 C   0  0  0  0  0  0  0  0  0  0  0  0
   -5.1643    1.4176   -0.0288 C   0  0  0  0  0  0  0  0  0  0  0  0
   -5.8400    1.9007    1.0983 C   0  0  0  0  0  0  0  0  0  0  0  0
   -7.0165    2.8184    0.9412 C   0  0  0  0  0  0  0  0  0  0  0  0
   -5.3674    1.5629    2.3704 C   0  0  0  0  0  0  0  0  0  0  0  0
   -4.2518    0.7348    2.4948 C   0  0  0  0  0  0  0  0  0  0  0  0
   -3.7724    0.3988    3.7366 O   0  0  0  0  0  0  0  0  0  0  0  0
   -1.9439   -1.9476   -0.3264 C   0  0  0  0  0  0  0  0  0  0  0  0
   -3.0789   -2.7217   -0.6088 C   0  0  0  0  0  0  0  0  0  0  0  0
   -2.9036   -3.5057   -1.6848 N   0  0  0  0  0  0  0  0  0  0  0  0
   -1.6320   -3.2416   -2.0756 N   0  0  0  0  0  0  0  0  0  0  0  0
   -1.0929   -3.9365   -3.2164 C   0  0  0  0  0  0  0  0  0  0  0  0
   -1.0352   -2.3183   -1.2770 C   0  0  0  0  0  0  0  0  0  0  0  0
    0.9039   -2.0726   -1.9845 H   0  0  0  0  0  0  0  0  0  0  0  0
    3.0007   -1.7067   -1.1438 H   0  0  0  0  0  0  0  0  0  0  0  0
    2.4444   -0.3554   -2.1656 H   0  0  0  0  0  0  0  0  0  0  0  0
    3.7193    0.3354    1.2493 H   0  0  0  0  0  0  0  0  0  0  0  0
    5.8375    1.4481    1.7044 H   0  0  0  0  0  0  0  0  0  0  0  0
    9.0974    2.9303    0.9737 H   0  0  0  0  0  0  0  0  0  0  0  0
    8.1968    1.6326    1.7667 H   0  0  0  0  0  0  0  0  0  0  0  0
    7.4078    3.2182    1.4061 H   0  0  0  0  0  0  0  0  0  0  0  0
    6.9088    1.1293   -2.4568 H   0  0  0  0  0  0  0  0  0  0  0  0
    4.7678    0.0033   -2.9179 H   0  0  0  0  0  0  0  0  0  0  0  0
   -2.0430   -0.3353    2.4584 H   0  0  0  0  0  0  0  0  0  0  0  0
   -3.5588    0.2378   -0.7992 H   0  0  0  0  0  0  0  0  0  0  0  0
   -5.5049    1.6836   -1.0278 H   0  0  0  0  0  0  0  0  0  0  0  0
   -7.7171    2.7012    1.7746 H   0  0  0  0  0  0  0  0  0  0  0  0
   -6.6777    3.8583    0.9068 H   0  0  0  0  0  0  0  0  0  0  0  0
   -7.5667    2.5942    0.0212 H   0  0  0  0  0  0  0  0  0  0  0  0
   -5.8717    1.9492    3.2511 H   0  0  0  0  0  0  0  0  0  0  0  0
   -4.3641    0.7781    4.4076 H   0  0  0  0  0  0  0  0  0  0  0  0
   -4.0257   -2.7494   -0.0845 H   0  0  0  0  0  0  0  0  0  0  0  0
   -0.0908   -3.5647   -3.4398 H   0  0  0  0  0  0  0  0  0  0  0  0
   -1.7504   -3.7597   -4.0715 H   0  0  0  0  0  0  0  0  0  0  0  0
   -1.0503   -5.0027   -2.9805 H   0  0  0  0  0  0  0  0  0  0  0  0
  1  2  1  0
  2  3  2  3
  3  4  1  0
  4  5  1  0
  5  6  2  0
  6  7  1  0
  7  8  2  0
  8  9  1  0
  9 10  1  0
  8 11  1  0
 11 12  2  0
  2 13  1  0
 13 14  2  0
 14 15  1  0
 15 16  1  0
 16 17  2  0
 17 18  1  0
 18 19  2  0
 19 20  1  0
 19 21  1  0
 21 22  2  0
 22 23  1  0
 14 24  1  0
 24 25  1  0
 25 26  2  0
 26 27  1  0
 27 28  1  0
 27 29  1  0
 29  1  1  0
 12  5  1  0
 22 16  1  0
 29 24  2  0
  1 30  1  0
  4 31  1  0
  4 32  1  0
  6 33  1  0
  7 34  1  0
 10 35  1  0
 10 36  1  0
 10 37  1  0
 11 38  1  0
 12 39  1  0
 15 40  1  0
 17 41  1  0
 18 42  1  0
 20 43  1  0
 20 44  1  0
 20 45  1  0
 21 46  1  0
 23 47  1  0
 25 48  1  0
 28 49  1  0
 28 50  1  0
 28 51  1  0
M  END
>  <ScrubInfo>  (4) 
{"isomerGroup": 0, "isomerId": 3, "confId": 0, "nr_conformers:": 1, "nr_isomers:": 9}

$$$$
_i4
     RDKit          3D

 51 54  0  0  0  0  0  0  0  0999 V2000
   -2.9722   -2.8610   -1.1916 N   0  0  0  0  0  0  0  0  0  0  0  0
   -3.1361   -1.5320   -0.8125 C   0  0  0  0  0  0  0  0  0  0  0  0
   -1.9884   -0.9243   -0.4752 C   0  0  0  0  0  0  0  0  0  0  0  0
   -1.5159    0.3840   -0.0413 C   0  0  0  0  0  0  0  0  0  0  0  0
   -2.1625    1.4529    0.2829 N   0  0  0  0  0  0  0  0  0  0  0  0
   -3.5629    1.4618    0.3129 C   0  0  0  0  0  0  0  0  0  0  0  0
   -4.2544    2.1402   -0.6930 C   0  0  0  0  0  0  0  0  0  0  0  0
   -5.6503    2.2129   -0.6763 C   0  0  0  0  0  0  0  0  0  0  0  0
   -6.3803    1.6087    0.3547 C   0  0  0  0  0  0  0  0  0  0  0  0
   -7.8762    1.7207    0.3896 C   0  0  0  0  0  0  0  0  0  0  0  0
   -5.6931    0.9550    1.3857 C   0  0  0  0  0  0  0  0  0  0  0  0
   -4.2984    0.8854    1.3601 C   0  0  0  0  0  0  0  0  0  0  0  0
   -3.6351    0.2231    2.3596 O   0  0  0  0  0  0  0  0  0  0  0  0
   -0.1497    0.4862    0.0098 N   0  0  0  0  0  0  0  0  0  0  0  0
    0.6501   -0.5137   -0.1985 C   0  0  0  0  0  0  0  0  0  0  0  0
    2.0009   -0.3462   -0.1234 N   0  0  0  0  0  0  0  0  0  0  0  0
    2.5881    0.7635    0.5891 C   0  0  0  0  0  0  0  0  0  0  0  0
    4.0930    0.6583    0.5236 C   0  0  0  0  0  0  0  0  0  0  0  0
    4.7773    1.0044   -0.6501 C   0  0  0  0  0  0  0  0  0  0  0  0
    6.1701    0.8921   -0.7273 C   0  0  0  0  0  0  0  0  0  0  0  0
    6.8970    0.4260    0.3677 C   0  0  0  0  0  0  0  0  0  0  0  0
    8.2544    0.2681    0.4254 O   0  0  0  0  0  0  0  0  0  0  0  0
    8.9919    0.6298   -0.7353 C   0  0  0  0  0  0  0  0  0  0  0  0
    6.2179    0.0710    1.5356 C   0  0  0  0  0  0  0  0  0  0  0  0
    4.8274    0.1817    1.6158 C   0  0  0  0  0  0  0  0  0  0  0  0
    0.2620   -1.7911   -0.4990 N   0  0  0  0  0  0  0  0  0  0  0  0
   -0.9999   -2.0059   -0.6375 C   0  0  0  0  0  0  0  0  0  0  0  0
   -1.6450   -3.2007   -0.9648 N   0  0  0  0  0  0  0  0  0  0  0  0
   -1.0103   -4.1720   -1.8351 C   0  0  0  0  0  0  0  0  0  0  0  0
   -3.6699   -3.4823   -0.7763 H   0  0  0  0  0  0  0  0  0  0  0  0
   -4.1333   -1.1178   -0.8148 H   0  0  0  0  0  0  0  0  0  0  0  0
   -3.6950    2.6254   -1.4890 H   0  0  0  0  0  0  0  0  0  0  0  0
   -6.1606    2.7539   -1.4703 H   0  0  0  0  0  0  0  0  0  0  0  0
   -8.2878    1.7731   -0.6238 H   0  0  0  0  0  0  0  0  0  0  0  0
   -8.3217    0.8463    0.8757 H   0  0  0  0  0  0  0  0  0  0  0  0
   -8.1713    2.6201    0.9387 H   0  0  0  0  0  0  0  0  0  0  0  0
   -6.2508    0.4987    2.1984 H   0  0  0  0  0  0  0  0  0  0  0  0
   -4.2196    0.1658    3.1316 H   0  0  0  0  0  0  0  0  0  0  0  0
    2.4949   -1.2252   -0.0425 H   0  0  0  0  0  0  0  0  0  0  0  0
    2.2763    1.7200    0.1519 H   0  0  0  0  0  0  0  0  0  0  0  0
    2.2577    0.7625    1.6349 H   0  0  0  0  0  0  0  0  0  0  0  0
    4.2212    1.3599   -1.5161 H   0  0  0  0  0  0  0  0  0  0  0  0
    6.6517    1.1737   -1.6575 H   0  0  0  0  0  0  0  0  0  0  0  0
    8.7137    0.0047   -1.5903 H   0  0  0  0  0  0  0  0  0  0  0  0
    8.8699    1.6934   -0.9657 H   0  0  0  0  0  0  0  0  0  0  0  0
   10.0515    0.4544   -0.5260 H   0  0  0  0  0  0  0  0  0  0  0  0
    6.7784   -0.2968    2.3917 H   0  0  0  0  0  0  0  0  0  0  0  0
    4.3250   -0.1065    2.5366 H   0  0  0  0  0  0  0  0  0  0  0  0
   -1.6260   -5.0741   -1.9114 H   0  0  0  0  0  0  0  0  0  0  0  0
   -0.0344   -4.4671   -1.4364 H   0  0  0  0  0  0  0  0  0  0  0  0
   -0.8691   -3.7611   -2.8403 H   0  0  0  0  0  0  0  0  0  0  0  0
  1  2  1  0
  2  3  2  0
  3  4  1  0
  4  5  2  3
  5  6  1  0
  6  7  2  0
  7  8  1  0
  8  9  2  0
  9 10  1  0
  9 11  1  0
 11 12  2  0
 12 13  1  0
  4 14  1  0
 14 15  2  0
 15 16  1  0
 16 17  1  0
 17 18  1  0
 18 19  2  0
 19 20  1  0
 20 21  2  0
 21 22  1  0
 22 23  1  0
 21 24  1  0
 24 25  2  0
 15 26  1  0
 26 27  2  0
 27 28  1  0
 28 29  1  0
 28  1  1  0
 27  3  1  0
 12  6  1  0
 25 18  1  0
  1 30  1  0
  2 31  1  0
  7 32  1  0
  8 33  1  0
 10 34  1  0
 10 35  1  0
 10 36  1  0
 11 37  1  0
 13 38  1  0
 16 39  1  0
 17 40  1  0
 17 41  1  0
 19 42  1  0
 20 43  1  0
 23 44  1  0
 23 45  1  0
 23 46  1  0
 24 47  1  0
 25 48  1  0
 29 49  1  0
 29 50  1  0
 29 51  1  0
M  END
>  <ScrubInfo>  (5) 
{"isomerGroup": 0, "isomerId": 4, "confId": 0, "nr_conformers:": 1, "nr_isomers:": 9}

$$$$
_i5
     RDKit          3D

 51 54  0  0  0  0  0  0  0  0999 V2000
   -0.2205   -2.6288    0.3148 N   0  0  0  0  0  0  0  0  0  0  0  0
   -0.6576   -1.7648    1.2874 C   0  0  0  0  0  0  0  0  0  0  0  0
   -1.8333   -2.1052    1.8911 N   0  0  0  0  0  0  0  0  0  0  0  0
   -3.0433   -2.4047    1.1420 C   0  0  0  0  0  0  0  0  0  0  0  0
   -3.7104   -1.1392    0.6637 C   0  0  0  0  0  0  0  0  0  0  0  0
   -3.3214   -0.5394   -0.5406 C   0  0  0  0  0  0  0  0  0  0  0  0
   -3.9301    0.6420   -0.9703 C   0  0  0  0  0  0  0  0  0  0  0  0
   -4.9280    1.2497   -0.2062 C   0  0  0  0  0  0  0  0  0  0  0  0
   -5.4394    2.3986   -0.7432 O   0  0  0  0  0  0  0  0  0  0  0  0
   -6.4043    3.0973    0.0328 C   0  0  0  0  0  0  0  0  0  0  0  0
   -5.3138    0.6635    0.9988 C   0  0  0  0  0  0  0  0  0  0  0  0
   -4.7062   -0.5209    1.4327 C   0  0  0  0  0  0  0  0  0  0  0  0
   -0.0372   -0.6853    1.6710 N   0  0  0  0  0  0  0  0  0  0  0  0
    1.1592   -0.3199    1.0680 C   0  0  0  0  0  0  0  0  0  0  0  0
    1.6888    0.7809    1.5013 N   0  0  0  0  0  0  0  0  0  0  0  0
    2.8979    1.2743    1.0018 C   0  0  0  0  0  0  0  0  0  0  0  0
    4.1219    0.8654    1.5313 C   0  0  0  0  0  0  0  0  0  0  0  0
    5.3163    1.3837    1.0200 C   0  0  0  0  0  0  0  0  0  0  0  0
    5.2989    2.3231   -0.0223 C   0  0  0  0  0  0  0  0  0  0  0  0
    6.5809    2.8997   -0.5461 C   0  0  0  0  0  0  0  0  0  0  0  0
    4.0685    2.7693   -0.5205 C   0  0  0  0  0  0  0  0  0  0  0  0
    2.8887    2.2514    0.0001 C   0  0  0  0  0  0  0  0  0  0  0  0
    1.6947    2.7221   -0.4770 O   0  0  0  0  0  0  0  0  0  0  0  0
    1.6615   -1.2036    0.0285 C   0  0  0  0  0  0  0  0  0  0  0  0
    2.7654   -1.2719   -0.8413 C   0  0  0  0  0  0  0  0  0  0  0  0
    2.7518   -2.3688   -1.6163 N   0  0  0  0  0  0  0  0  0  0  0  0
    1.6161   -3.0046   -1.2538 N   0  0  0  0  0  0  0  0  0  0  0  0
    1.2668   -4.2391   -1.9087 C   0  0  0  0  0  0  0  0  0  0  0  0
    0.9425   -2.3293   -0.2874 C   0  0  0  0  0  0  0  0  0  0  0  0
   -0.6630   -3.5359    0.2663 H   0  0  0  0  0  0  0  0  0  0  0  0
   -2.0304   -1.4023    2.6023 H   0  0  0  0  0  0  0  0  0  0  0  0
   -3.7303   -2.9538    1.7970 H   0  0  0  0  0  0  0  0  0  0  0  0
   -2.8470   -3.0723    0.2949 H   0  0  0  0  0  0  0  0  0  0  0  0
   -2.5335   -0.9782   -1.1488 H   0  0  0  0  0  0  0  0  0  0  0  0
   -3.6164    1.0995   -1.9059 H   0  0  0  0  0  0  0  0  0  0  0  0
   -6.6850    4.0008   -0.5171 H   0  0  0  0  0  0  0  0  0  0  0  0
   -7.3094    2.4964    0.1696 H   0  0  0  0  0  0  0  0  0  0  0  0
   -5.9871    3.4098    0.9959 H   0  0  0  0  0  0  0  0  0  0  0  0
   -6.0816    1.1026    1.6269 H   0  0  0  0  0  0  0  0  0  0  0  0
   -5.0183   -0.9548    2.3806 H   0  0  0  0  0  0  0  0  0  0  0  0
    4.1460    0.1430    2.3423 H   0  0  0  0  0  0  0  0  0  0  0  0
    6.2620    1.0519    1.4434 H   0  0  0  0  0  0  0  0  0  0  0  0
    7.3931    2.1682   -0.4804 H   0  0  0  0  0  0  0  0  0  0  0  0
    6.8559    3.7873    0.0320 H   0  0  0  0  0  0  0  0  0  0  0  0
    6.4811    3.1800   -1.6000 H   0  0  0  0  0  0  0  0  0  0  0  0
    4.0217    3.5238   -1.3009 H   0  0  0  0  0  0  0  0  0  0  0  0
    1.0230    2.3500    0.1310 H   0  0  0  0  0  0  0  0  0  0  0  0
    3.5920   -0.5843   -0.9580 H   0  0  0  0  0  0  0  0  0  0  0  0
    2.0085   -4.9937   -1.6353 H   0  0  0  0  0  0  0  0  0  0  0  0
    1.2713   -4.0723   -2.9890 H   0  0  0  0  0  0  0  0  0  0  0  0
    0.2729   -4.5615   -1.5918 H   0  0  0  0  0  0  0  0  0  0  0  0
  1  2  1  0
  2  3  1  0
  3  4  1  0
  4  5  1  0
  5  6  2  0
  6  7  1  0
  7  8  2  0
  8  9  1  0
  9 10  1  0
  8 11  1  0
 11 12  2  0
  2 13  2  0
 13 14  1  0
 14 15  2  3
 15 16  1  0
 16 17  2  0
 17 18  1  0
 18 19  2  0
 19 20  1  0
 19 21  1  0
 21 22  2  0
 22 23  1  0
 14 24  1  0
 24 25  1  0
 25 26  2  0
 26 27  1  0
 27 28  1  0
 27 29  1  0
 29  1  1  0
 12  5  1  0
 22 16  1  0
 29 24  2  0
  1 30  1  0
  3 31  1  0
  4 32  1  0
  4 33  1  0
  6 34  1  0
  7 35  1  0
 10 36  1  0
 10 37  1  0
 10 38  1  0
 11 39  1  0
 12 40  1  0
 17 41  1  0
 18 42  1  0
 20 43  1  0
 20 44  1  0
 20 45  1  0
 21 46  1  0
 23 47  1  0
 25 48  1  0
 28 49  1  0
 28 50  1  0
 28 51  1  0
M  END
>  <ScrubInfo>  (6) 
{"isomerGroup": 0, "isomerId": 5, "confId": 0, "nr_conformers:": 1, "nr_isomers:": 9}

$$$$
_i6
     RDKit          3D

 51 54  0  0  0  0  0  0  0  0999 V2000
    1.2551    0.1417    3.0553 N   0  0  0  0  0  0  0  0  0  0  0  0
    1.8118    0.6475    1.8852 C   0  0  0  0  0  0  0  0  0  0  0  0
    1.1568    0.2594    0.7829 C   0  0  0  0  0  0  0  0  0  0  0  0
    1.2500    0.4210   -0.6660 C   0  0  0  0  0  0  0  0  0  0  0  0
    2.2258    1.1632   -1.2851 N   0  0  0  0  0  0  0  0  0  0  0  0
    3.6222    0.9222   -1.2483 C   0  0  0  0  0  0  0  0  0  0  0  0
    4.2314   -0.0535   -0.4553 C   0  0  0  0  0  0  0  0  0  0  0  0
    5.6253   -0.1895   -0.4292 C   0  0  0  0  0  0  0  0  0  0  0  0
    6.4417    0.6461   -1.1998 C   0  0  0  0  0  0  0  0  0  0  0  0
    7.9349    0.5134   -1.1406 C   0  0  0  0  0  0  0  0  0  0  0  0
    5.8472    1.6376   -1.9862 C   0  0  0  0  0  0  0  0  0  0  0  0
    4.4575    1.7631   -2.0065 C   0  0  0  0  0  0  0  0  0  0  0  0
    3.8627    2.7175   -2.7938 O   0  0  0  0  0  0  0  0  0  0  0  0
    0.3198   -0.1199   -1.4031 N   0  0  0  0  0  0  0  0  0  0  0  0
   -0.6756   -0.8608   -0.8022 C   0  0  0  0  0  0  0  0  0  0  0  0
   -1.4975   -1.3828   -1.6401 N   0  0  0  0  0  0  0  0  0  0  0  0
   -2.6091   -2.1802   -1.1365 C   0  0  0  0  0  0  0  0  0  0  0  0
   -3.8526   -1.3572   -0.8951 C   0  0  0  0  0  0  0  0  0  0  0  0
   -4.5514   -0.7998   -1.9720 C   0  0  0  0  0  0  0  0  0  0  0  0
   -5.6991   -0.0353   -1.7502 C   0  0  0  0  0  0  0  0  0  0  0  0
   -6.1638    0.1922   -0.4531 C   0  0  0  0  0  0  0  0  0  0  0  0
   -7.2966    0.9558   -0.3763 O   0  0  0  0  0  0  0  0  0  0  0  0
   -7.7987    1.2274    0.9254 C   0  0  0  0  0  0  0  0  0  0  0  0
   -5.4646   -0.3505    0.6252 C   0  0  0  0  0  0  0  0  0  0  0  0
   -4.3146   -1.1177    0.4046 C   0  0  0  0  0  0  0  0  0  0  0  0
   -0.8458   -1.0686    0.5491 N   0  0  0  0  0  0  0  0  0  0  0  0
    0.0147   -0.5056    1.3235 C   0  0  0  0  0  0  0  0  0  0  0  0
    0.0637   -0.4931    2.7180 N   0  0  0  0  0  0  0  0  0  0  0  0
   -0.3769   -1.6354    3.4941 C   0  0  0  0  0  0  0  0  0  0  0  0
    1.1934    0.8373    3.8030 H   0  0  0  0  0  0  0  0  0  0  0  0
    2.6840    1.2835    1.9450 H   0  0  0  0  0  0  0  0  0  0  0  0
    1.9794    1.4169   -2.2419 H   0  0  0  0  0  0  0  0  0  0  0  0
    3.6441   -0.7480    0.1368 H   0  0  0  0  0  0  0  0  0  0  0  0
    6.0679   -0.9626    0.1962 H   0  0  0  0  0  0  0  0  0  0  0  0
    8.3352    1.1470   -0.3433 H   0  0  0  0  0  0  0  0  0  0  0  0
    8.2278   -0.5243   -0.9492 H   0  0  0  0  0  0  0  0  0  0  0  0
    8.3914    0.8090   -2.0911 H   0  0  0  0  0  0  0  0  0  0  0  0
    6.4715    2.2998   -2.5788 H   0  0  0  0  0  0  0  0  0  0  0  0
    4.5572    3.2285   -3.2411 H   0  0  0  0  0  0  0  0  0  0  0  0
   -2.8500   -2.9369   -1.8947 H   0  0  0  0  0  0  0  0  0  0  0  0
   -2.3481   -2.7696   -0.2480 H   0  0  0  0  0  0  0  0  0  0  0  0
   -4.1940   -0.9530   -2.9880 H   0  0  0  0  0  0  0  0  0  0  0  0
   -6.2306    0.3915   -2.5966 H   0  0  0  0  0  0  0  0  0  0  0  0
   -8.0919    0.3043    1.4364 H   0  0  0  0  0  0  0  0  0  0  0  0
   -7.0740    1.7953    1.5181 H   0  0  0  0  0  0  0  0  0  0  0  0
   -8.6951    1.8453    0.8157 H   0  0  0  0  0  0  0  0  0  0  0  0
   -5.7809   -0.1937    1.6502 H   0  0  0  0  0  0  0  0  0  0  0  0
   -3.7714   -1.5216    1.2559 H   0  0  0  0  0  0  0  0  0  0  0  0
   -0.3569   -1.4002    4.5632 H   0  0  0  0  0  0  0  0  0  0  0  0
   -1.4043   -1.9070    3.2308 H   0  0  0  0  0  0  0  0  0  0  0  0
    0.2709   -2.4999    3.3156 H   0  0  0  0  0  0  0  0  0  0  0  0
  1  2  1  0
  2  3  2  0
  3  4  1  0
  4  5  1  0
  5  6  1  0
  6  7  2  0
  7  8  1  0
  8  9  2  0
  9 10  1  0
  9 11  1  0
 11 12  2  0
 12 13  1  0
  4 14  2  0
 14 15  1  0
 15 16  2  3
 16 17  1  0
 17 18  1  0
 18 19  2  0
 19 20  1  0
 20 21  2  0
 21 22  1  0
 22 23  1  0
 21 24  1  0
 24 25  2  0
 15 26  1  0
 26 27  2  0
 27 28  1  0
 28 29  1  0
 28  1  1  0
 27  3  1  0
 12  6  1  0
 25 18  1  0
  1 30  1  0
  2 31  1  0
  5 32  1  0
  7 33  1  0
  8 34  1  0
 10 35  1  0
 10 36  1  0
 10 37  1  0
 11 38  1  0
 13 39  1  0
 17 40  1  0
 17 41  1  0
 19 42  1  0
 20 43  1  0
 23 44  1  0
 23 45  1  0
 23 46  1  0
 24 47  1  0
 25 48  1  0
 29 49  1  0
 29 50  1  0
 29 51  1  0
M  END
>  <ScrubInfo>  (7) 
{"isomerGroup": 0, "isomerId": 6, "confId": 0, "nr_conformers:": 1, "nr_isomers:": 9}

$$$$
_i7
     RDKit          3D

 51 54  0  0  0  0  0  0  0  0999 V2000
   -0.8753   -4.6079   -0.0601 N   0  0  0  0  0  0  0  0  0  0  0  0
   -1.8480   -3.6703   -0.3867 C   0  0  0  0  0  0  0  0  0  0  0  0
   -1.5446   -2.4377    0.0368 C   0  0  0  0  0  0  0  0  0  0  0  0
   -2.1156   -1.0906   -0.0332 C   0  0  0  0  0  0  0  0  0  0  0  0
   -3.2679   -0.9173   -0.6124 N   0  0  0  0  0  0  0  0  0  0  0  0
   -3.7794    0.3900   -0.7009 C   0  0  0  0  0  0  0  0  0  0  0  0
   -3.3394    1.2766   -1.6839 C   0  0  0  0  0  0  0  0  0  0  0  0
   -3.8496    2.5778   -1.7361 C   0  0  0  0  0  0  0  0  0  0  0  0
   -4.8230    3.0004   -0.8182 C   0  0  0  0  0  0  0  0  0  0  0  0
   -5.3434    4.4071   -0.8565 C   0  0  0  0  0  0  0  0  0  0  0  0
   -5.2705    2.1082    0.1637 C   0  0  0  0  0  0  0  0  0  0  0  0
   -4.7586    0.8168    0.2024 C   0  0  0  0  0  0  0  0  0  0  0  0
   -5.2284   -0.0499    1.1522 O   0  0  0  0  0  0  0  0  0  0  0  0
   -1.3047   -0.1545    0.5568 N   0  0  0  0  0  0  0  0  0  0  0  0
   -0.0906   -0.3802    1.1518 C   0  0  0  0  0  0  0  0  0  0  0  0
    0.5572    0.6415    1.6058 N   0  0  0  0  0  0  0  0  0  0  0  0
    1.8605    0.4119    2.2315 C   0  0  0  0  0  0  0  0  0  0  0  0
    2.9955    0.4317    1.2349 C   0  0  0  0  0  0  0  0  0  0  0  0
    3.2815    1.5947    0.5081 C   0  0  0  0  0  0  0  0  0  0  0  0
    4.3295    1.6205   -0.4191 C   0  0  0  0  0  0  0  0  0  0  0  0
    5.1039    0.4803   -0.6327 C   0  0  0  0  0  0  0  0  0  0  0  0
    6.1519    0.3700   -1.5054 O   0  0  0  0  0  0  0  0  0  0  0  0
    6.4853    1.5311   -2.2552 C   0  0  0  0  0  0  0  0  0  0  0  0
    4.8183   -0.6824    0.0864 C   0  0  0  0  0  0  0  0  0  0  0  0
    3.7727   -0.7099    1.0123 C   0  0  0  0  0  0  0  0  0  0  0  0
    0.4329   -1.6522    1.2713 N   0  0  0  0  0  0  0  0  0  0  0  0
   -0.2469   -2.6286    0.7567 C   0  0  0  0  0  0  0  0  0  0  0  0
    0.0715   -3.9898    0.7548 N   0  0  0  0  0  0  0  0  0  0  0  0
    1.4536   -4.4259    0.6769 C   0  0  0  0  0  0  0  0  0  0  0  0
   -1.2591   -5.4911    0.2838 H   0  0  0  0  0  0  0  0  0  0  0  0
   -2.7288   -3.9800   -0.9314 H   0  0  0  0  0  0  0  0  0  0  0  0
   -2.5964    0.9570   -2.4094 H   0  0  0  0  0  0  0  0  0  0  0  0
   -3.4866    3.2596   -2.5026 H   0  0  0  0  0  0  0  0  0  0  0  0
   -5.3436    4.7956   -1.8803 H   0  0  0  0  0  0  0  0  0  0  0  0
   -6.3751    4.4522   -0.4921 H   0  0  0  0  0  0  0  0  0  0  0  0
   -4.7189    5.0537   -0.2325 H   0  0  0  0  0  0  0  0  0  0  0  0
   -6.0200    2.4079    0.8912 H   0  0  0  0  0  0  0  0  0  0  0  0
   -4.8331   -0.9113    0.9110 H   0  0  0  0  0  0  0  0  0  0  0  0
   -1.5888    0.8141    0.5548 H   0  0  0  0  0  0  0  0  0  0  0  0
    2.0336    1.2224    2.9512 H   0  0  0  0  0  0  0  0  0  0  0  0
    1.8799   -0.5004    2.8415 H   0  0  0  0  0  0  0  0  0  0  0  0
    2.6778    2.4869    0.6610 H   0  0  0  0  0  0  0  0  0  0  0  0
    4.5089    2.5451   -0.9563 H   0  0  0  0  0  0  0  0  0  0  0  0
    5.6577    1.8320   -2.9060 H   0  0  0  0  0  0  0  0  0  0  0  0
    6.7912    2.3518   -1.5979 H   0  0  0  0  0  0  0  0  0  0  0  0
    7.3375    1.2824   -2.8949 H   0  0  0  0  0  0  0  0  0  0  0  0
    5.4150   -1.5759   -0.0775 H   0  0  0  0  0  0  0  0  0  0  0  0
    3.5624   -1.6284    1.5542 H   0  0  0  0  0  0  0  0  0  0  0  0
    1.5146   -5.5154    0.7652 H   0  0  0  0  0  0  0  0  0  0  0  0
    2.0408   -3.9916    1.4923 H   0  0  0  0  0  0  0  0  0  0  0  0
    1.9028   -4.1278   -0.2763 H   0  0  0  0  0  0  0  0  0  0  0  0
  1  2  1  0
  2  3  2  0
  3  4  1  0
  4  5  2  3
  5  6  1  0
  6  7  2  0
  7  8  1  0
  8  9  2  0
  9 10  1  0
  9 11  1  0
 11 12  2  0
 12 13  1  0
  4 14  1  0
 14 15  1  0
 15 16  2  3
 16 17  1  0
 17 18  1  0
 18 19  2  0
 19 20  1  0
 20 21  2  0
 21 22  1  0
 22 23  1  0
 21 24  1  0
 24 25  2  0
 15 26  1  0
 26 27  2  0
 27 28  1  0
 28 29  1  0
 28  1  1  0
 27  3  1  0
 12  6  1  0
 25 18  1  0
  1 30  1  0
  2 31  1  0
  7 32  1  0
  8 33  1  0
 10 34  1  0
 10 35  1  0
 10 36  1  0
 11 37  1  0
 13 38  1  0
 14 39  1  0
 17 40  1  0
 17 41  1  0
 19 42  1  0
 20 43  1  0
 23 44  1  0
 23 45  1  0
 23 46  1  0
 24 47  1  0
 25 48  1  0
 29 49  1  0
 29 50  1  0
 29 51  1  0
M  END
>  <ScrubInfo>  (8) 
{"isomerGroup": 0, "isomerId": 7, "confId": 0, "nr_conformers:": 1, "nr_isomers:": 9}

$$$$
_i8
     RDKit          3D

 51 54  0  0  0  0  0  0  0  0999 V2000
    0.5186   -1.5488   -0.2157 N   0  0  0  0  0  0  0  0  0  0  0  0
   -0.0343   -0.4950   -0.9287 C   0  0  0  0  0  0  0  0  0  0  0  0
    0.5177    0.2255   -1.8455 N   0  0  0  0  0  0  0  0  0  0  0  0
    1.8839   -0.0755   -2.2795 C   0  0  0  0  0  0  0  0  0  0  0  0
    2.9642    0.1785   -1.2527 C   0  0  0  0  0  0  0  0  0  0  0  0
    4.1088   -0.6309   -1.2240 C   0  0  0  0  0  0  0  0  0  0  0  0
    5.1233   -0.4057   -0.2859 C   0  0  0  0  0  0  0  0  0  0  0  0
    5.0118    0.6396    0.6302 C   0  0  0  0  0  0  0  0  0  0  0  0
    5.9234    0.9648    1.5959 O   0  0  0  0  0  0  0  0  0  0  0  0
    7.1179    0.1953    1.6405 C   0  0  0  0  0  0  0  0  0  0  0  0
    3.8821    1.4588    0.5935 C   0  0  0  0  0  0  0  0  0  0  0  0
    2.8705    1.2387   -0.3442 C   0  0  0  0  0  0  0  0  0  0  0  0
   -1.3417   -0.2144   -0.5762 N   0  0  0  0  0  0  0  0  0  0  0  0
   -2.1746   -0.7968    0.3590 C   0  0  0  0  0  0  0  0  0  0  0  0
   -3.3970   -0.5401    0.6943 N   0  0  0  0  0  0  0  0  0  0  0  0
   -4.0606    0.4855   -0.0010 C   0  0  0  0  0  0  0  0  0  0  0  0
   -4.6393    0.2580   -1.2497 C   0  0  0  0  0  0  0  0  0  0  0  0
   -5.2736    1.3018   -1.9311 C   0  0  0  0  0  0  0  0  0  0  0  0
   -5.3546    2.5812   -1.3611 C   0  0  0  0  0  0  0  0  0  0  0  0
   -6.0066    3.7065   -2.1093 C   0  0  0  0  0  0  0  0  0  0  0  0
   -4.7796    2.8080   -0.1047 C   0  0  0  0  0  0  0  0  0  0  0  0
   -4.1562    1.7615    0.5644 C   0  0  0  0  0  0  0  0  0  0  0  0
   -3.6242    1.9977    1.8032 O   0  0  0  0  0  0  0  0  0  0  0  0
   -1.4960   -1.8623    1.0570 C   0  0  0  0  0  0  0  0  0  0  0  0
   -1.8382   -2.7598    2.0791 C   0  0  0  0  0  0  0  0  0  0  0  0
   -0.8231   -3.5767    2.3999 N   0  0  0  0  0  0  0  0  0  0  0  0
    0.1808   -3.1862    1.5771 N   0  0  0  0  0  0  0  0  0  0  0  0
    1.4559   -3.8525    1.6605 C   0  0  0  0  0  0  0  0  0  0  0  0
   -0.1964   -2.1763    0.7452 C   0  0  0  0  0  0  0  0  0  0  0  0
    1.5000   -1.7417   -0.3688 H   0  0  0  0  0  0  0  0  0  0  0  0
    1.9290   -1.1142   -2.6322 H   0  0  0  0  0  0  0  0  0  0  0  0
    2.1048    0.5505   -3.1525 H   0  0  0  0  0  0  0  0  0  0  0  0
    4.2252   -1.4428   -1.9393 H   0  0  0  0  0  0  0  0  0  0  0  0
    5.9888   -1.0595   -0.3027 H   0  0  0  0  0  0  0  0  0  0  0  0
    7.7420    0.5928    2.4467 H   0  0  0  0  0  0  0  0  0  0  0  0
    6.9028   -0.8531    1.8721 H   0  0  0  0  0  0  0  0  0  0  0  0
    7.6823    0.2865    0.7065 H   0  0  0  0  0  0  0  0  0  0  0  0
    3.7899    2.2819    1.2982 H   0  0  0  0  0  0  0  0  0  0  0  0
    2.0050    1.8987   -0.3580 H   0  0  0  0  0  0  0  0  0  0  0  0
   -1.7261    0.5659   -1.0903 H   0  0  0  0  0  0  0  0  0  0  0  0
   -4.5959   -0.7320   -1.6953 H   0  0  0  0  0  0  0  0  0  0  0  0
   -5.7106    1.1089   -2.9088 H   0  0  0  0  0  0  0  0  0  0  0  0
   -6.4490    4.4311   -1.4176 H   0  0  0  0  0  0  0  0  0  0  0  0
   -5.2675    4.2181   -2.7333 H   0  0  0  0  0  0  0  0  0  0  0  0
   -6.8136    3.3341   -2.7490 H   0  0  0  0  0  0  0  0  0  0  0  0
   -4.8223    3.7892    0.3603 H   0  0  0  0  0  0  0  0  0  0  0  0
   -3.3714    1.1135    2.1369 H   0  0  0  0  0  0  0  0  0  0  0  0
   -2.7800   -2.8545    2.6045 H   0  0  0  0  0  0  0  0  0  0  0  0
    1.6910   -4.0338    2.7126 H   0  0  0  0  0  0  0  0  0  0  0  0
    1.3817   -4.7979    1.1177 H   0  0  0  0  0  0  0  0  0  0  0  0
    2.2313   -3.2221    1.2198 H   0  0  0  0  0  0  0  0  0  0  0  0
  1  2  1  0
  2  3  2  3
  3  4  1  0
  4  5  1  0
  5  6  2  0
  6  7  1  0
  7  8  2  0
  8  9  1  0
  9 10  1  0
  8 11  1  0
 11 12  2  0
  2 13  1  0
 13 14  1  0
 14 15  2  3
 15 16  1  0
 16 17  2  0
 17 18  1  0
 18 19  2  0
 19 20  1  0
 19 21  1  0
 21 22  2  0
 22 23  1  0
 14 24  1  0
 24 25  1  0
 25 26  2  0
 26 27  1  0
 27 28  1  0
 27 29  1  0
 29  1  1  0
 12  5  1  0
 22 16  1  0
 29 24  2  0
  1 30  1  0
  4 31  1  0
  4 32  1  0
  6 33  1  0
  7 34  1  0
 10 35  1  0
 10 36  1  0
 10 37  1  0
 11 38  1  0
 12 39  1  0
 13 40  1  0
 17 41  1  0
 18 42  1  0
 20 43  1  0
 20 44  1  0
 20 45  1  0
 21 46  1  0
 23 47  1  0
 25 48  1  0
 28 49  1  0
 28 50  1  0
 28 51  1  0
M  END
>  <ScrubInfo>  (9) 
{"isomerGroup": 0, "isomerId": 8, "confId": 0, "nr_conformers:": 1, "nr_isomers:": 9}

$$$$
