REMARK SMILES COc1ccc(CNc2nc(Nc3ccc(C)cc3O)c3cnn(C)c3n2)cc1
REMARK SMILES IDX 9 1 10 2 11 3 21 4 22 5 23 6 24 7 25 8 26 9 27 10 8 11 7 13
REMARK SMILES IDX 6 14 3 15 4 16 29 17 5 18 28 19 2 20 1 21 12 22 13 24 14 25
REMARK SMILES IDX 19 26 15 27 18 28 16 29 17 30 20 31
REMARK H PARENT 8 12 12 23 20 32
ROOT
ATOM      1  C   UNL     1       0.540  -0.693   0.041  1.00  0.00     0.227 A 
ATOM      2  N   UNL     1      -0.299   0.316  -0.259  1.00  0.00    -0.195 NA
ATOM      3  C   UNL     1      -1.586   0.054  -0.594  1.00  0.00     0.147 A 
ATOM      4  C   UNL     1      -1.988  -1.281  -0.654  1.00  0.00     0.082 A 
ATOM      5  C   UNL     1      -3.141  -2.028  -0.969  1.00  0.00     0.149 A 
ATOM      6  N   UNL     1      -2.953  -3.348  -0.849  1.00  0.00    -0.179 NA
ATOM      7  N   UNL     1      -1.662  -3.442  -0.455  1.00  0.00    -0.250 N 
ATOM      8  C   UNL     1      -1.087  -4.742  -0.215  1.00  0.00     0.176 C 
ATOM      9  C   UNL     1      -1.038  -2.230  -0.334  1.00  0.00     0.165 A 
ATOM     10  N   UNL     1       0.234  -1.998   0.021  1.00  0.00    -0.193 NA
ENDROOT
BRANCH   1  11
ATOM     11  N   UNL     1       1.820  -0.294   0.397  1.00  0.00    -0.350 N 
ATOM     12  H   UNL     1       1.929   0.663   0.082  1.00  0.00     0.164 HD
BRANCH  11  13
ATOM     13  C   UNL     1       2.868  -1.197  -0.030  1.00  0.00     0.152 C 
BRANCH  13  14
ATOM     14  C   UNL     1       4.210  -0.544   0.212  1.00  0.00    -0.029 A 
ATOM     15  C   UNL     1       6.699   0.695   0.677  1.00  0.00     0.118 A 
ATOM     16  C   UNL     1       5.941   0.204   1.742  1.00  0.00     0.047 A 
ATOM     17  C   UNL     1       6.207   0.570  -0.623  1.00  0.00     0.047 A 
ATOM     18  C   UNL     1       4.706  -0.408   1.515  1.00  0.00     0.009 A 
ATOM     19  C   UNL     1       4.970  -0.043  -0.853  1.00  0.00     0.009 A 
BRANCH  15  20
ATOM     20  O   UNL     1       7.886   1.270   1.037  1.00  0.00    -0.497 OA
ATOM     21  C   UNL     1       8.694   1.789  -0.011  1.00  0.00     0.278 C 
ENDBRANCH  15  20
ENDBRANCH  13  14
ENDBRANCH  11  13
ENDBRANCH   1  11
BRANCH   3  22
ATOM     22  N   UNL     1      -2.403   1.159  -0.899  1.00  0.00    -0.336 N 
ATOM     23  H   UNL     1      -1.852   1.975  -0.622  1.00  0.00     0.168 HD
BRANCH  22  24
ATOM     24  C   UNL     1      -3.740   1.336  -0.465  1.00  0.00     0.082 A 
ATOM     25  C   UNL     1      -4.195   0.909   0.786  1.00  0.00     0.030 A 
ATOM     26  C   UNL     1      -4.609   2.098  -1.259  1.00  0.00     0.139 A 
ATOM     27  C   UNL     1      -5.501   1.194   1.200  1.00  0.00     0.006 A 
ATOM     28  C   UNL     1      -5.906   2.393  -0.855  1.00  0.00     0.051 A 
ATOM     29  C   UNL     1      -6.362   1.945   0.389  1.00  0.00    -0.047 A 
ATOM     30  C   UNL     1      -7.771   2.221   0.825  1.00  0.00     0.044 C 
BRANCH  26  31
ATOM     31  O   UNL     1      -4.193   2.553  -2.482  1.00  0.00    -0.506 OA
ATOM     32  H   UNL     1      -3.318   2.143  -2.624  1.00  0.00     0.293 HD
ENDBRANCH  26  31
ENDBRANCH  22  24
ENDBRANCH   3  22
TORSDOF 7
