_i0
     RDKit          3D

 46 50  0  0  0  0  0  0  0  0999 V2000
    2.6307    0.7408   -4.9488 C   0  0  0  0  0  0  0  0  0  0  0  0
    1.6136    1.3532   -4.2170 C   0  0  0  0  0  0  0  0  0  0  0  0
    1.5560    1.1973   -2.8304 C   0  0  0  0  0  0  0  0  0  0  0  0
    2.5182    0.4208   -2.1715 C   0  0  0  0  0  0  0  0  0  0  0  0
    2.5097    0.2513   -0.6888 C   0  0  0  0  0  0  0  0  0  0  0  0
    1.1633    0.1351   -0.0393 C   0  0  0  0  0  0  0  0  0  0  0  0
    1.1336    0.0144    1.2993 C   0  0  0  0  0  0  0  0  0  0  0  0
   -0.0276   -0.1123    2.0689 N   0  0  0  0  0  0  0  0  0  0  0  0
   -1.2673    0.6034    1.8242 C   0  0  0  0  0  0  0  0  0  0  0  0
   -2.4231   -0.3521    2.0283 C   0  0  0  0  0  0  0  0  0  0  0  0
   -2.6215   -1.3444    0.8969 C   0  0  0  0  0  0  0  0  0  0  0  0
   -3.1316   -0.7199   -0.3208 N   0  0  0  0  0  0  0  0  0  0  0  0
   -4.4437   -0.4946   -0.6330 C   0  0  0  0  0  0  0  0  0  0  0  0
   -4.4496    0.0801   -1.8813 C   0  0  0  0  0  0  0  0  0  0  0  0
   -3.0943    0.1531   -2.2445 C   0  0  0  0  0  0  0  0  0  0  0  0
   -2.2854   -0.3266   -1.2972 N   0  0  0  0  0  0  0  0  0  0  0  0
   -2.6969   -0.8327    3.4451 C   0  0  0  0  0  0  0  0  0  0  0  0
   -3.6422    0.1334    2.7974 C   0  0  0  0  0  0  0  0  0  0  0  0
    2.3721   -0.0183    1.9870 N   0  0  0  0  0  0  0  0  0  0  0  0
    2.5638   -0.1216    3.3392 N   0  0  0  0  0  0  0  0  0  0  0  0
    3.8892   -0.1032    3.4805 C   0  0  0  0  0  0  0  0  0  0  0  0
    4.5702    0.0189    2.2605 C   0  0  0  0  0  0  0  0  0  0  0  0
    3.5856    0.0749    1.3031 C   0  0  0  0  0  0  0  0  0  0  0  0
    3.6484    0.2031   -0.0533 N   0  0  0  0  0  0  0  0  0  0  0  0
    3.5447   -0.1810   -2.9100 C   0  0  0  0  0  0  0  0  0  0  0  0
    3.5951   -0.0273   -4.2960 C   0  0  0  0  0  0  0  0  0  0  0  0
    2.6758    0.8670   -6.0279 H   0  0  0  0  0  0  0  0  0  0  0  0
    0.8694    1.9603   -4.7263 H   0  0  0  0  0  0  0  0  0  0  0  0
    0.7690    1.7046   -2.2794 H   0  0  0  0  0  0  0  0  0  0  0  0
    0.2701    0.1111   -0.6456 H   0  0  0  0  0  0  0  0  0  0  0  0
    0.2205   -0.1468    3.0645 H   0  0  0  0  0  0  0  0  0  0  0  0
   -1.3288    1.4395    2.5311 H   0  0  0  0  0  0  0  0  0  0  0  0
   -1.3046    1.0504    0.8269 H   0  0  0  0  0  0  0  0  0  0  0  0
   -1.6839   -1.8510    0.6431 H   0  0  0  0  0  0  0  0  0  0  0  0
   -3.3444   -2.1229    1.1711 H   0  0  0  0  0  0  0  0  0  0  0  0
   -5.2450   -0.7582    0.0425 H   0  0  0  0  0  0  0  0  0  0  0  0
   -5.3094    0.3953   -2.4534 H   0  0  0  0  0  0  0  0  0  0  0  0
   -2.6662    0.5365   -3.1617 H   0  0  0  0  0  0  0  0  0  0  0  0
   -2.0679   -0.4660    4.2491 H   0  0  0  0  0  0  0  0  0  0  0  0
   -3.0243   -1.8561    3.5901 H   0  0  0  0  0  0  0  0  0  0  0  0
   -4.6246   -0.2342    2.5221 H   0  0  0  0  0  0  0  0  0  0  0  0
   -3.6557    1.1525    3.1673 H   0  0  0  0  0  0  0  0  0  0  0  0
    4.3083   -0.1753    4.4752 H   0  0  0  0  0  0  0  0  0  0  0  0
    5.6336    0.0668    2.0846 H   0  0  0  0  0  0  0  0  0  0  0  0
    4.3059   -0.7738   -2.4069 H   0  0  0  0  0  0  0  0  0  0  0  0
    4.3909   -0.5003   -4.8650 H   0  0  0  0  0  0  0  0  0  0  0  0
  1  2  2  0
  2  3  1  0
  3  4  2  0
  4  5  1  0
  5  6  1  0
  6  7  2  0
  7  8  1  0
  8  9  1  0
  9 10  1  0
 10 11  1  0
 11 12  1  0
 12 13  1  0
 13 14  2  0
 14 15  1  0
 15 16  2  0
 10 17  1  0
 17 18  1  0
  7 19  1  0
 19 20  1  0
 20 21  2  0
 21 22  1  0
 22 23  2  0
 23 24  1  0
  4 25  1  0
 25 26  2  0
 26  1  1  0
 24  5  2  0
 18 10  1  0
 23 19  1  0
 16 12  1  0
  1 27  1  0
  2 28  1  0
  3 29  1  0
  6 30  1  0
  8 31  1  0
  9 32  1  0
  9 33  1  0
 11 34  1  0
 11 35  1  0
 13 36  1  0
 14 37  1  0
 15 38  1  0
 17 39  1  0
 17 40  1  0
 18 41  1  0
 18 42  1  0
 21 43  1  0
 22 44  1  0
 25 45  1  0
 26 46  1  0
M  END
>  <ScrubInfo>  (1) 
{"isomerGroup": 0, "isomerId": 0, "confId": 0, "nr_conformers:": 1, "nr_isomers:": 3}

$$$$
_i1
     RDKit          3D

 46 50  0  0  0  0  0  0  0  0999 V2000
   -2.9739    0.8921    0.8168 N   0  0  0  0  0  0  0  0  0  0  0  0
   -2.9444   -0.3643    0.2453 C   0  0  0  0  0  0  0  0  0  0  0  0
   -4.2348   -1.0211   -0.0233 C   0  0  0  0  0  0  0  0  0  0  0  0
   -5.1576   -0.4266   -0.8954 C   0  0  0  0  0  0  0  0  0  0  0  0
   -6.3871   -1.0382   -1.1486 C   0  0  0  0  0  0  0  0  0  0  0  0
   -6.7055   -2.2463   -0.5304 C   0  0  0  0  0  0  0  0  0  0  0  0
   -5.7963   -2.8445    0.3407 C   0  0  0  0  0  0  0  0  0  0  0  0
   -4.5657   -2.2348    0.5945 C   0  0  0  0  0  0  0  0  0  0  0  0
   -1.7933   -0.9795   -0.0793 C   0  0  0  0  0  0  0  0  0  0  0  0
   -0.4711   -0.3227    0.1886 C   0  0  0  0  0  0  0  0  0  0  0  0
    0.6002   -0.9744   -0.1257 N   0  0  0  0  0  0  0  0  0  0  0  0
    1.9399   -0.4763    0.1559 C   0  0  0  0  0  0  0  0  0  0  0  0
    2.5333    0.3836   -0.9483 C   0  0  0  0  0  0  0  0  0  0  0  0
    3.6487    1.2950   -0.4645 C   0  0  0  0  0  0  0  0  0  0  0  0
    4.8184    0.5588    0.0051 N   0  0  0  0  0  0  0  0  0  0  0  0
    5.8599    0.1075   -0.7585 C   0  0  0  0  0  0  0  0  0  0  0  0
    6.7302   -0.5099    0.1081 C   0  0  0  0  0  0  0  0  0  0  0  0
    6.1338   -0.3662    1.3734 C   0  0  0  0  0  0  0  0  0  0  0  0
    4.9750    0.2940    1.3191 N   0  0  0  0  0  0  0  0  0  0  0  0
    2.6507   -0.2285   -2.3370 C   0  0  0  0  0  0  0  0  0  0  0  0
    1.6796    0.8888   -2.1074 C   0  0  0  0  0  0  0  0  0  0  0  0
   -0.6138    0.9693    0.7592 N   0  0  0  0  0  0  0  0  0  0  0  0
    0.4219    1.8070    1.0414 N   0  0  0  0  0  0  0  0  0  0  0  0
   -0.1592    2.8863    1.5695 C   0  0  0  0  0  0  0  0  0  0  0  0
   -1.5612    2.7927    1.6123 C   0  0  0  0  0  0  0  0  0  0  0  0
   -1.8308    1.5637    1.0719 C   0  0  0  0  0  0  0  0  0  0  0  0
   -3.8921    1.2557    1.0628 H   0  0  0  0  0  0  0  0  0  0  0  0
   -4.9183    0.5112   -1.3922 H   0  0  0  0  0  0  0  0  0  0  0  0
   -7.0948   -0.5740   -1.8307 H   0  0  0  0  0  0  0  0  0  0  0  0
   -7.6623   -2.7229   -0.7284 H   0  0  0  0  0  0  0  0  0  0  0  0
   -6.0454   -3.7859    0.8241 H   0  0  0  0  0  0  0  0  0  0  0  0
   -3.8710   -2.7105    1.2835 H   0  0  0  0  0  0  0  0  0  0  0  0
   -1.7534   -1.9600   -0.5390 H   0  0  0  0  0  0  0  0  0  0  0  0
    2.5849   -1.3582    0.2633 H   0  0  0  0  0  0  0  0  0  0  0  0
    1.9942    0.0095    1.1353 H   0  0  0  0  0  0  0  0  0  0  0  0
    3.3049    1.9318    0.3586 H   0  0  0  0  0  0  0  0  0  0  0  0
    4.0000    1.9600   -1.2631 H   0  0  0  0  0  0  0  0  0  0  0  0
    5.8863    0.2548   -1.8285 H   0  0  0  0  0  0  0  0  0  0  0  0
    7.6640   -0.9941   -0.1373 H   0  0  0  0  0  0  0  0  0  0  0  0
    6.4959   -0.7116    2.3330 H   0  0  0  0  0  0  0  0  0  0  0  0
    3.5291   -0.0197   -2.9357 H   0  0  0  0  0  0  0  0  0  0  0  0
    2.2473   -1.2246   -2.4903 H   0  0  0  0  0  0  0  0  0  0  0  0
    0.6260    0.6451   -2.1576 H   0  0  0  0  0  0  0  0  0  0  0  0
    1.9074    1.8595   -2.5343 H   0  0  0  0  0  0  0  0  0  0  0  0
    0.4679    3.7054    1.8992 H   0  0  0  0  0  0  0  0  0  0  0  0
   -2.2673    3.5230    1.9779 H   0  0  0  0  0  0  0  0  0  0  0  0
  1  2  1  0
  2  3  1  0
  3  4  2  0
  4  5  1  0
  5  6  2  0
  6  7  1  0
  7  8  2  0
  2  9  2  0
  9 10  1  0
 10 11  2  3
 11 12  1  0
 12 13  1  0
 13 14  1  0
 14 15  1  0
 15 16  1  0
 16 17  2  0
 17 18  1  0
 18 19  2  0
 13 20  1  0
 20 21  1  0
 10 22  1  0
 22 23  1  0
 23 24  2  0
 24 25  1  0
 25 26  2  0
 26  1  1  0
  8  3  1  0
 21 13  1  0
 26 22  1  0
 19 15  1  0
  1 27  1  0
  4 28  1  0
  5 29  1  0
  6 30  1  0
  7 31  1  0
  8 32  1  0
  9 33  1  0
 12 34  1  0
 12 35  1  0
 14 36  1  0
 14 37  1  0
 16 38  1  0
 17 39  1  0
 18 40  1  0
 20 41  1  0
 20 42  1  0
 21 43  1  0
 21 44  1  0
 24 45  1  0
 25 46  1  0
M  END
>  <ScrubInfo>  (2) 
{"isomerGroup": 0, "isomerId": 1, "confId": 0, "nr_conformers:": 1, "nr_isomers:": 3}

$$$$
_i2
     RDKit          3D

 46 50  0  0  0  0  0  0  0  0999 V2000
   -0.6224   -3.1822    1.1397 N   0  0  0  0  0  0  0  0  0  0  0  0
   -1.5885   -4.1363    1.4322 C   0  0  0  0  0  0  0  0  0  0  0  0
   -2.8455   -3.7462    1.1457 C   0  0  0  0  0  0  0  0  0  0  0  0
   -2.6298   -2.3476    0.6880 C   0  0  0  0  0  0  0  0  0  0  0  0
   -3.5549   -1.5229    0.3110 N   0  0  0  0  0  0  0  0  0  0  0  0
   -3.0987   -0.2583   -0.0575 C   0  0  0  0  0  0  0  0  0  0  0  0
   -4.1303    0.6992   -0.5276 C   0  0  0  0  0  0  0  0  0  0  0  0
   -5.0775    0.2874   -1.4768 C   0  0  0  0  0  0  0  0  0  0  0  0
   -6.0600    1.1685   -1.9349 C   0  0  0  0  0  0  0  0  0  0  0  0
   -6.1128    2.4705   -1.4421 C   0  0  0  0  0  0  0  0  0  0  0  0
   -5.1892    2.8905   -0.4871 C   0  0  0  0  0  0  0  0  0  0  0  0
   -4.2058    2.0094   -0.0289 C   0  0  0  0  0  0  0  0  0  0  0  0
   -1.8079    0.1524   -0.0519 C   0  0  0  0  0  0  0  0  0  0  0  0
   -0.7591   -0.8223    0.4104 C   0  0  0  0  0  0  0  0  0  0  0  0
    0.5087   -0.5760    0.5123 N   0  0  0  0  0  0  0  0  0  0  0  0
    1.0192    0.7390    0.1498 C   0  0  0  0  0  0  0  0  0  0  0  0
    2.5214    0.7134    0.3636 C   0  0  0  0  0  0  0  0  0  0  0  0
    3.2289   -0.2583   -0.5756 C   0  0  0  0  0  0  0  0  0  0  0  0
    4.6743   -0.0987   -0.7038 N   0  0  0  0  0  0  0  0  0  0  0  0
    5.6374   -0.7861   -0.0164 C   0  0  0  0  0  0  0  0  0  0  0  0
    6.8443   -0.3453   -0.5046 C   0  0  0  0  0  0  0  0  0  0  0  0
    6.5061    0.5901   -1.4988 C   0  0  0  0  0  0  0  0  0  0  0  0
    5.1861    0.7358   -1.6352 N   0  0  0  0  0  0  0  0  0  0  0  0
    3.1802    2.0087    0.8160 C   0  0  0  0  0  0  0  0  0  0  0  0
    3.0252    0.8753    1.7894 C   0  0  0  0  0  0  0  0  0  0  0  0
   -1.2851   -2.0483    0.7434 N   0  0  0  0  0  0  0  0  0  0  0  0
    0.0882   -3.0401    1.8571 H   0  0  0  0  0  0  0  0  0  0  0  0
   -1.2754   -5.0799    1.8582 H   0  0  0  0  0  0  0  0  0  0  0  0
   -3.7880   -4.2445    1.2557 H   0  0  0  0  0  0  0  0  0  0  0  0
   -5.0523   -0.7297   -1.8632 H   0  0  0  0  0  0  0  0  0  0  0  0
   -6.7852    0.8343   -2.6721 H   0  0  0  0  0  0  0  0  0  0  0  0
   -6.8796    3.1548   -1.7960 H   0  0  0  0  0  0  0  0  0  0  0  0
   -5.2385    3.9020   -0.0924 H   0  0  0  0  0  0  0  0  0  0  0  0
   -3.5100    2.3522    0.7329 H   0  0  0  0  0  0  0  0  0  0  0  0
   -1.5070    1.1377   -0.3747 H   0  0  0  0  0  0  0  0  0  0  0  0
    0.5604    1.5144    0.7755 H   0  0  0  0  0  0  0  0  0  0  0  0
    0.8125    0.9715   -0.9015 H   0  0  0  0  0  0  0  0  0  0  0  0
    2.8221   -0.1682   -1.5906 H   0  0  0  0  0  0  0  0  0  0  0  0
    3.0547   -1.2892   -0.2445 H   0  0  0  0  0  0  0  0  0  0  0  0
    5.3835   -1.5082    0.7463 H   0  0  0  0  0  0  0  0  0  0  0  0
    7.8297   -0.6597   -0.1933 H   0  0  0  0  0  0  0  0  0  0  0  0
    7.1657    1.1677   -2.1333 H   0  0  0  0  0  0  0  0  0  0  0  0
    4.1802    2.2541    0.4754 H   0  0  0  0  0  0  0  0  0  0  0  0
    2.5607    2.8878    0.9588 H   0  0  0  0  0  0  0  0  0  0  0  0
    3.9203    0.3505    2.1010 H   0  0  0  0  0  0  0  0  0  0  0  0
    2.2935    0.9811    2.5835 H   0  0  0  0  0  0  0  0  0  0  0  0
  1  2  1  0
  2  3  2  0
  3  4  1  0
  4  5  2  0
  5  6  1  0
  6  7  1  0
  7  8  2  0
  8  9  1  0
  9 10  2  0
 10 11  1  0
 11 12  2  0
  6 13  2  0
 13 14  1  0
 14 15  2  3
 15 16  1  0
 16 17  1  0
 17 18  1  0
 18 19  1  0
 19 20  1  0
 20 21  2  0
 21 22  1  0
 22 23  2  0
 17 24  1  0
 24 25  1  0
 14 26  1  0
 26  1  1  0
 26  4  1  0
 12  7  1  0
 25 17  1  0
 23 19  1  0
  1 27  1  0
  2 28  1  0
  3 29  1  0
  8 30  1  0
  9 31  1  0
 10 32  1  0
 11 33  1  0
 12 34  1  0
 13 35  1  0
 16 36  1  0
 16 37  1  0
 18 38  1  0
 18 39  1  0
 20 40  1  0
 21 41  1  0
 22 42  1  0
 24 43  1  0
 24 44  1  0
 25 45  1  0
 25 46  1  0
M  END
>  <ScrubInfo>  (3) 
{"isomerGroup": 0, "isomerId": 2, "confId": 0, "nr_conformers:": 1, "nr_isomers:": 3}

$$$$
