REMARK SMILES c1ccc(-c2cc(NCC3(Cn4cccn4)CC3)n3nccc3n2)cc1
REMARK SMILES IDX 9 1 8 2 7 4 5 5 6 6 24 7 23 8 19 9 22 10 20 11 21 12 4 13
REMARK SMILES IDX 1 14 2 15 26 16 3 17 25 18 10 19 17 20 18 21 11 22 12 23
REMARK SMILES IDX 13 24 16 25 14 26 15 27
REMARK H PARENT 8 3
ROOT
ATOM      1  C   UNL     1      -1.267   0.603   1.824  1.00  0.00     0.123 C 
ENDROOT
BRANCH   1   2
ATOM      2  N   UNL     1      -0.028  -0.112   2.069  1.00  0.00    -0.369 N 
ATOM      3  H   UNL     1       0.221  -0.147   3.064  1.00  0.00     0.162 HD
BRANCH   2   4
ATOM      4  C   UNL     1       1.134   0.014   1.299  1.00  0.00     0.132 A 
ATOM      5  C   UNL     1       2.510   0.251  -0.689  1.00  0.00     0.076 A 
ATOM      6  C   UNL     1       1.163   0.135  -0.039  1.00  0.00     0.075 A 
ATOM      7  N   UNL     1       3.648   0.203  -0.053  1.00  0.00    -0.228 NA
ATOM      8  C   UNL     1       3.586   0.075   1.303  1.00  0.00     0.157 A 
ATOM      9  N   UNL     1       2.372  -0.018   1.987  1.00  0.00    -0.199 N 
ATOM     10  C   UNL     1       4.570   0.019   2.260  1.00  0.00     0.071 A 
ATOM     11  N   UNL     1       2.564  -0.122   3.339  1.00  0.00    -0.173 NA
ATOM     12  C   UNL     1       3.889  -0.103   3.481  1.00  0.00     0.138 A 
BRANCH   5  13
ATOM     13  C   UNL     1       2.518   0.421  -2.171  1.00  0.00     0.000 A 
ATOM     14  C   UNL     1       2.631   0.741  -4.949  1.00  0.00     0.000 A 
ATOM     15  C   UNL     1       1.614   1.353  -4.217  1.00  0.00     0.001 A 
ATOM     16  C   UNL     1       3.595  -0.027  -4.296  1.00  0.00     0.001 A 
ATOM     17  C   UNL     1       1.556   1.197  -2.830  1.00  0.00     0.010 A 
ATOM     18  C   UNL     1       3.545  -0.181  -2.910  1.00  0.00     0.010 A 
ENDBRANCH   5  13
ENDBRANCH   2   4
ENDBRANCH   1   2
BRANCH   1  19
ATOM     19  C   UNL     1      -2.423  -0.352   2.028  1.00  0.00     0.007 C 
ATOM     20  C   UNL     1      -2.697  -0.833   3.445  1.00  0.00     0.011 C 
ATOM     21  C   UNL     1      -3.642   0.133   2.797  1.00  0.00     0.011 C 
BRANCH  19  22
ATOM     22  C   UNL     1      -2.622  -1.344   0.897  1.00  0.00     0.153 C 
BRANCH  22  23
ATOM     23  N   UNL     1      -3.132  -0.720  -0.321  1.00  0.00    -0.272 N 
ATOM     24  C   UNL     1      -4.444  -0.495  -0.633  1.00  0.00     0.108 A 
ATOM     25  N   UNL     1      -2.285  -0.327  -1.297  1.00  0.00    -0.182 NA
ATOM     26  C   UNL     1      -4.450   0.080  -1.881  1.00  0.00     0.042 A 
ATOM     27  C   UNL     1      -3.094   0.153  -2.244  1.00  0.00     0.135 A 
ENDBRANCH  22  23
ENDBRANCH  19  22
ENDBRANCH   1  19
TORSDOF 6
