_i0
     RDKit          3D

 50 52  0  0  0  0  0  0  0  0999 V2000
   -3.5156    1.1834   -1.7718 C   0  0  0  0  0  0  0  0  0  0  0  0
   -4.4306    0.9663   -0.5983 C   0  0  0  0  0  0  0  0  0  0  0  0
   -5.7718    0.6285   -0.8473 C   0  0  0  0  0  0  0  0  0  0  0  0
   -6.6605    0.4353    0.2047 C   0  0  0  0  0  0  0  0  0  0  0  0
   -7.9493    0.1163   -0.1035 O   0  0  0  0  0  0  0  0  0  0  0  0
   -6.2436    0.5727    1.5207 C   0  0  0  0  0  0  0  0  0  0  0  0
   -4.9109    0.8934    1.7805 C   0  0  0  0  0  0  0  0  0  0  0  0
   -3.9871    1.0601    0.7357 C   0  0  0  0  0  0  0  0  0  0  0  0
   -2.6651    1.4069    1.0888 N   0  0  0  0  0  0  0  0  0  0  0  0
   -1.5102    0.6940    0.7191 C   0  0  0  0  0  0  0  0  0  0  0  0
   -0.3993    1.4244    0.4449 N   0  0  0  0  0  0  0  0  0  0  0  0
    0.7442    0.8077    0.0920 C   0  0  0  0  0  0  0  0  0  0  0  0
    1.8115    1.6642   -0.1376 N   0  0  0  0  0  0  0  0  0  0  0  0
    2.7047    1.3079   -1.2256 C   0  0  0  0  0  0  0  0  0  0  0  0
    4.1378    1.1519   -0.7092 C   0  0  0  0  0  0  0  0  0  0  0  0
    4.3217   -0.0941    0.1637 C   0  0  0  0  0  0  0  0  0  0  0  0
    5.7404   -0.2449    0.7146 C   0  0  0  0  0  0  0  0  0  0  0  0
    6.7928   -0.4911   -0.3591 C   0  0  0  0  0  0  0  0  0  0  0  0
    8.0515   -0.7490    0.2509 O   0  0  0  0  0  0  0  0  0  0  0  0
    0.9152   -0.5154   -0.0290 N   0  0  0  0  0  0  0  0  0  0  0  0
   -0.1923   -1.2136    0.2592 C   0  0  0  0  0  0  0  0  0  0  0  0
   -1.4164   -0.6963    0.6318 C   0  0  0  0  0  0  0  0  0  0  0  0
   -2.2337   -1.8299    0.8195 C   0  0  0  0  0  0  0  0  0  0  0  0
   -1.5899   -2.9805    0.5856 N   0  0  0  0  0  0  0  0  0  0  0  0
   -0.3435   -2.5730    0.2515 N   0  0  0  0  0  0  0  0  0  0  0  0
    0.6632   -3.5551   -0.0628 C   0  0  0  0  0  0  0  0  0  0  0  0
   -4.0858    1.3897   -2.6843 H   0  0  0  0  0  0  0  0  0  0  0  0
   -2.8650    2.0482   -1.6078 H   0  0  0  0  0  0  0  0  0  0  0  0
   -2.9058    0.2925   -1.9480 H   0  0  0  0  0  0  0  0  0  0  0  0
   -6.1344    0.5227   -1.8673 H   0  0  0  0  0  0  0  0  0  0  0  0
   -8.4465   -0.0017    0.7224 H   0  0  0  0  0  0  0  0  0  0  0  0
   -6.9295    0.4359    2.3501 H   0  0  0  0  0  0  0  0  0  0  0  0
   -4.5796    1.0002    2.8114 H   0  0  0  0  0  0  0  0  0  0  0  0
   -2.4722    2.3843    0.8799 H   0  0  0  0  0  0  0  0  0  0  0  0
    1.4167    2.5970   -0.1917 H   0  0  0  0  0  0  0  0  0  0  0  0
    2.6902    2.1280   -1.9540 H   0  0  0  0  0  0  0  0  0  0  0  0
    2.3994    0.4103   -1.7775 H   0  0  0  0  0  0  0  0  0  0  0  0
    4.8026    1.0912   -1.5781 H   0  0  0  0  0  0  0  0  0  0  0  0
    4.4290    2.0449   -0.1424 H   0  0  0  0  0  0  0  0  0  0  0  0
    3.6362   -0.0465    1.0179 H   0  0  0  0  0  0  0  0  0  0  0  0
    4.0533   -0.9902   -0.4089 H   0  0  0  0  0  0  0  0  0  0  0  0
    5.7585   -1.0817    1.4245 H   0  0  0  0  0  0  0  0  0  0  0  0
    6.0134    0.6416    1.3005 H   0  0  0  0  0  0  0  0  0  0  0  0
    6.9092    0.3724   -1.0201 H   0  0  0  0  0  0  0  0  0  0  0  0
    6.5314   -1.3607   -0.9697 H   0  0  0  0  0  0  0  0  0  0  0  0
    8.2677    0.0157    0.8117 H   0  0  0  0  0  0  0  0  0  0  0  0
   -3.2743   -1.8646    1.1158 H   0  0  0  0  0  0  0  0  0  0  0  0
    0.3254   -4.1274   -0.9305 H   0  0  0  0  0  0  0  0  0  0  0  0
    0.7867   -4.2106    0.8030 H   0  0  0  0  0  0  0  0  0  0  0  0
    1.6106   -3.0613   -0.2906 H   0  0  0  0  0  0  0  0  0  0  0  0
  1  2  1  0
  2  3  2  0
  3  4  1  0
  4  5  1  0
  4  6  2  0
  6  7  1  0
  7  8  2  0
  8  9  1  0
  9 10  1  0
 10 11  2  0
 11 12  1  0
 12 13  1  0
 13 14  1  0
 14 15  1  0
 15 16  1  0
 16 17  1  0
 17 18  1  0
 18 19  1  0
 12 20  2  0
 20 21  1  0
 21 22  2  0
 22 23  1  0
 23 24  2  0
 24 25  1  0
 25 26  1  0
  8  2  1  0
 22 10  1  0
 25 21  1  0
  1 27  1  0
  1 28  1  0
  1 29  1  0
  3 30  1  0
  5 31  1  0
  6 32  1  0
  7 33  1  0
  9 34  1  0
 13 35  1  0
 14 36  1  0
 14 37  1  0
 15 38  1  0
 15 39  1  0
 16 40  1  0
 16 41  1  0
 17 42  1  0
 17 43  1  0
 18 44  1  0
 18 45  1  0
 19 46  1  0
 23 47  1  0
 26 48  1  0
 26 49  1  0
 26 50  1  0
M  END
>  <ScrubInfo>  (1) 
{"isomerGroup": 0, "isomerId": 0, "confId": 0, "nr_conformers:": 1, "nr_isomers:": 9}

$$$$
_i1
     RDKit          3D

 50 52  0  0  0  0  0  0  0  0999 V2000
   -1.2496    0.1393   -0.5830 N   0  0  0  0  0  0  0  0  0  0  0  0
    0.0895    0.4641   -0.6474 C   0  0  0  0  0  0  0  0  0  0  0  0
    0.8948   -0.6410   -0.7380 N   0  0  0  0  0  0  0  0  0  0  0  0
    2.3473   -0.5339   -0.6979 C   0  0  0  0  0  0  0  0  0  0  0  0
    2.8390   -0.4307    0.7458 C   0  0  0  0  0  0  0  0  0  0  0  0
    4.3476   -0.1939    0.8612 C   0  0  0  0  0  0  0  0  0  0  0  0
    5.1910   -1.3492    0.3110 C   0  0  0  0  0  0  0  0  0  0  0  0
    6.6816   -1.1369    0.5535 C   0  0  0  0  0  0  0  0  0  0  0  0
    6.9490   -1.1597    1.9479 O   0  0  0  0  0  0  0  0  0  0  0  0
    0.5449    1.6919   -0.6375 N   0  0  0  0  0  0  0  0  0  0  0  0
   -0.4623    2.6037   -0.5388 C   0  0  0  0  0  0  0  0  0  0  0  0
   -1.8208    2.3680   -0.4715 C   0  0  0  0  0  0  0  0  0  0  0  0
   -2.4139    3.6342   -0.3825 C   0  0  0  0  0  0  0  0  0  0  0  0
   -1.5062    4.6200   -0.3868 N   0  0  0  0  0  0  0  0  0  0  0  0
   -0.3230    3.9627   -0.4856 N   0  0  0  0  0  0  0  0  0  0  0  0
    0.9036    4.7177   -0.5230 C   0  0  0  0  0  0  0  0  0  0  0  0
   -2.3124    1.0157   -0.5085 C   0  0  0  0  0  0  0  0  0  0  0  0
   -3.5877    0.8149   -0.4748 N   0  0  0  0  0  0  0  0  0  0  0  0
   -4.0393   -0.5124   -0.5075 C   0  0  0  0  0  0  0  0  0  0  0  0
   -4.2362   -1.1375   -1.7450 C   0  0  0  0  0  0  0  0  0  0  0  0
   -4.6607   -2.4637   -1.8098 C   0  0  0  0  0  0  0  0  0  0  0  0
   -4.9029   -3.1618   -0.6347 C   0  0  0  0  0  0  0  0  0  0  0  0
   -5.3142   -4.4570   -0.7407 O   0  0  0  0  0  0  0  0  0  0  0  0
   -4.7336   -2.5541    0.6067 C   0  0  0  0  0  0  0  0  0  0  0  0
   -4.3094   -1.2175    0.6803 C   0  0  0  0  0  0  0  0  0  0  0  0
   -4.1305   -0.5596    2.0201 C   0  0  0  0  0  0  0  0  0  0  0  0
   -1.4934   -0.8249   -0.7339 H   0  0  0  0  0  0  0  0  0  0  0  0
    0.5497   -1.4710   -0.2723 H   0  0  0  0  0  0  0  0  0  0  0  0
    2.6907    0.3199   -1.2934 H   0  0  0  0  0  0  0  0  0  0  0  0
    2.7573   -1.4332   -1.1691 H   0  0  0  0  0  0  0  0  0  0  0  0
    2.3255    0.3965    1.2517 H   0  0  0  0  0  0  0  0  0  0  0  0
    2.5651   -1.3407    1.2945 H   0  0  0  0  0  0  0  0  0  0  0  0
    4.5839   -0.0397    1.9210 H   0  0  0  0  0  0  0  0  0  0  0  0
    4.6132    0.7347    0.3414 H   0  0  0  0  0  0  0  0  0  0  0  0
    4.8753   -2.2818    0.7938 H   0  0  0  0  0  0  0  0  0  0  0  0
    5.0249   -1.4549   -0.7662 H   0  0  0  0  0  0  0  0  0  0  0  0
    7.0136   -0.1776    0.1438 H   0  0  0  0  0  0  0  0  0  0  0  0
    7.2559   -1.9398    0.0808 H   0  0  0  0  0  0  0  0  0  0  0  0
    7.9045   -1.0148    2.0586 H   0  0  0  0  0  0  0  0  0  0  0  0
   -3.4654    3.8813   -0.3147 H   0  0  0  0  0  0  0  0  0  0  0  0
    0.8797    5.3682   -1.4009 H   0  0  0  0  0  0  0  0  0  0  0  0
    1.7595    4.0423   -0.5861 H   0  0  0  0  0  0  0  0  0  0  0  0
    0.9692    5.3127    0.3915 H   0  0  0  0  0  0  0  0  0  0  0  0
   -4.0593   -0.5825   -2.6629 H   0  0  0  0  0  0  0  0  0  0  0  0
   -4.8106   -2.9450   -2.7720 H   0  0  0  0  0  0  0  0  0  0  0  0
   -5.5305   -4.7902    0.1458 H   0  0  0  0  0  0  0  0  0  0  0  0
   -4.9337   -3.1059    1.5206 H   0  0  0  0  0  0  0  0  0  0  0  0
   -4.5262   -1.1842    2.8280 H   0  0  0  0  0  0  0  0  0  0  0  0
   -4.6671    0.3942    2.0547 H   0  0  0  0  0  0  0  0  0  0  0  0
   -3.0677   -0.3869    2.2169 H   0  0  0  0  0  0  0  0  0  0  0  0
  1  2  1  0
  2  3  1  0
  3  4  1  0
  4  5  1  0
  5  6  1  0
  6  7  1  0
  7  8  1  0
  8  9  1  0
  2 10  2  0
 10 11  1  0
 11 12  2  0
 12 13  1  0
 13 14  2  0
 14 15  1  0
 15 16  1  0
 12 17  1  0
 17 18  2  3
 18 19  1  0
 19 20  2  0
 20 21  1  0
 21 22  2  0
 22 23  1  0
 22 24  1  0
 24 25  2  0
 25 26  1  0
 17  1  1  0
 25 19  1  0
 15 11  1  0
  1 27  1  0
  3 28  1  0
  4 29  1  0
  4 30  1  0
  5 31  1  0
  5 32  1  0
  6 33  1  0
  6 34  1  0
  7 35  1  0
  7 36  1  0
  8 37  1  0
  8 38  1  0
  9 39  1  0
 13 40  1  0
 16 41  1  0
 16 42  1  0
 16 43  1  0
 20 44  1  0
 21 45  1  0
 23 46  1  0
 24 47  1  0
 26 48  1  0
 26 49  1  0
 26 50  1  0
M  END
>  <ScrubInfo>  (2) 
{"isomerGroup": 0, "isomerId": 1, "confId": 0, "nr_conformers:": 1, "nr_isomers:": 9}

$$$$
_i2
     RDKit          3D

 50 52  0  0  0  0  0  0  0  0999 V2000
    0.3588   -1.1886   -0.1252 N   0  0  0  0  0  0  0  0  0  0  0  0
    1.5241   -0.5920   -0.5615 C   0  0  0  0  0  0  0  0  0  0  0  0
    2.6568   -1.3448   -0.8227 N   0  0  0  0  0  0  0  0  0  0  0  0
    3.9643   -1.0641   -0.3459 C   0  0  0  0  0  0  0  0  0  0  0  0
    4.1830   -0.3176    0.8236 C   0  0  0  0  0  0  0  0  0  0  0  0
    5.4764   -0.0823    1.2916 C   0  0  0  0  0  0  0  0  0  0  0  0
    6.5609   -0.6025    0.6025 C   0  0  0  0  0  0  0  0  0  0  0  0
    7.8060   -0.3491    1.0949 O   0  0  0  0  0  0  0  0  0  0  0  0
    6.3750   -1.3615   -0.5479 C   0  0  0  0  0  0  0  0  0  0  0  0
    5.0768   -1.6032   -1.0296 C   0  0  0  0  0  0  0  0  0  0  0  0
    4.8977   -2.4204   -2.2811 C   0  0  0  0  0  0  0  0  0  0  0  0
    1.4467    0.7318   -0.7511 C   0  0  0  0  0  0  0  0  0  0  0  0
    2.3195    1.8231   -1.1993 C   0  0  0  0  0  0  0  0  0  0  0  0
    1.7288    2.9925   -1.1781 N   0  0  0  0  0  0  0  0  0  0  0  0
    0.4109    2.7383   -0.7658 N   0  0  0  0  0  0  0  0  0  0  0  0
   -0.4215    3.8437   -0.3598 C   0  0  0  0  0  0  0  0  0  0  0  0
    0.1680    1.4118   -0.4501 C   0  0  0  0  0  0  0  0  0  0  0  0
   -0.8958    0.8440    0.0083 N   0  0  0  0  0  0  0  0  0  0  0  0
   -0.7947   -0.5165    0.1904 C   0  0  0  0  0  0  0  0  0  0  0  0
   -1.7873   -1.1977    0.6589 N   0  0  0  0  0  0  0  0  0  0  0  0
   -3.0196   -0.4893    1.0120 C   0  0  0  0  0  0  0  0  0  0  0  0
   -3.9602   -0.4657   -0.1924 C   0  0  0  0  0  0  0  0  0  0  0  0
   -5.2422    0.3341    0.0514 C   0  0  0  0  0  0  0  0  0  0  0  0
   -6.1450   -0.2772    1.1215 C   0  0  0  0  0  0  0  0  0  0  0  0
   -7.4598    0.4836    1.2435 C   0  0  0  0  0  0  0  0  0  0  0  0
   -8.2625   -0.0991    2.2617 O   0  0  0  0  0  0  0  0  0  0  0  0
    0.3556   -2.1742    0.0831 H   0  0  0  0  0  0  0  0  0  0  0  0
    2.4810   -2.3435   -0.7445 H   0  0  0  0  0  0  0  0  0  0  0  0
    3.3506    0.0774    1.4003 H   0  0  0  0  0  0  0  0  0  0  0  0
    5.6340    0.4989    2.1959 H   0  0  0  0  0  0  0  0  0  0  0  0
    8.4642   -0.7606    0.5112 H   0  0  0  0  0  0  0  0  0  0  0  0
    7.2310   -1.7687   -1.0785 H   0  0  0  0  0  0  0  0  0  0  0  0
    4.3383   -3.3350   -2.0599 H   0  0  0  0  0  0  0  0  0  0  0  0
    5.8609   -2.7166   -2.7100 H   0  0  0  0  0  0  0  0  0  0  0  0
    4.3643   -1.8401   -3.0410 H   0  0  0  0  0  0  0  0  0  0  0  0
    3.3592    1.6375   -1.4974 H   0  0  0  0  0  0  0  0  0  0  0  0
   -0.2131    4.7303   -0.9674 H   0  0  0  0  0  0  0  0  0  0  0  0
   -1.4818    3.5991   -0.4799 H   0  0  0  0  0  0  0  0  0  0  0  0
   -0.2383    4.0926    0.6901 H   0  0  0  0  0  0  0  0  0  0  0  0
   -2.8364    0.5212    1.3959 H   0  0  0  0  0  0  0  0  0  0  0  0
   -3.4844   -1.0412    1.8362 H   0  0  0  0  0  0  0  0  0  0  0  0
   -3.4411   -0.0247   -1.0525 H   0  0  0  0  0  0  0  0  0  0  0  0
   -4.2130   -1.4932   -0.4827 H   0  0  0  0  0  0  0  0  0  0  0  0
   -4.9853    1.3641    0.3273 H   0  0  0  0  0  0  0  0  0  0  0  0
   -5.7950    0.3896   -0.8946 H   0  0  0  0  0  0  0  0  0  0  0  0
   -6.3531   -1.3283    0.8865 H   0  0  0  0  0  0  0  0  0  0  0  0
   -5.6457   -0.2785    2.0973 H   0  0  0  0  0  0  0  0  0  0  0  0
   -7.2814    1.5294    1.5121 H   0  0  0  0  0  0  0  0  0  0  0  0
   -8.0220    0.4612    0.3044 H   0  0  0  0  0  0  0  0  0  0  0  0
   -8.4139   -1.0284    2.0184 H   0  0  0  0  0  0  0  0  0  0  0  0
  1  2  1  0
  2  3  1  0
  3  4  1  0
  4  5  2  0
  5  6  1  0
  6  7  2  0
  7  8  1  0
  7  9  1  0
  9 10  2  0
 10 11  1  0
  2 12  2  0
 12 13  1  0
 13 14  2  0
 14 15  1  0
 15 16  1  0
 15 17  1  0
 17 18  2  0
 18 19  1  0
 19 20  2  3
 20 21  1  0
 21 22  1  0
 22 23  1  0
 23 24  1  0
 24 25  1  0
 25 26  1  0
 19  1  1  0
 10  4  1  0
 17 12  1  0
  1 27  1  0
  3 28  1  0
  5 29  1  0
  6 30  1  0
  8 31  1  0
  9 32  1  0
 11 33  1  0
 11 34  1  0
 11 35  1  0
 13 36  1  0
 16 37  1  0
 16 38  1  0
 16 39  1  0
 21 40  1  0
 21 41  1  0
 22 42  1  0
 22 43  1  0
 23 44  1  0
 23 45  1  0
 24 46  1  0
 24 47  1  0
 25 48  1  0
 25 49  1  0
 26 50  1  0
M  END
>  <ScrubInfo>  (3) 
{"isomerGroup": 0, "isomerId": 2, "confId": 0, "nr_conformers:": 1, "nr_isomers:": 9}

$$$$
_i3
     RDKit          3D

 50 52  0  0  0  0  0  0  0  0999 V2000
    0.2576   -1.4316   -0.2739 N   0  0  0  0  0  0  0  0  0  0  0  0
    0.4452   -0.3595    0.5839 C   0  0  0  0  0  0  0  0  0  0  0  0
    1.5706    0.1879    0.8803 N   0  0  0  0  0  0  0  0  0  0  0  0
    2.7972   -0.3273    0.2906 C   0  0  0  0  0  0  0  0  0  0  0  0
    3.9665    0.4964    0.8293 C   0  0  0  0  0  0  0  0  0  0  0  0
    5.2983    0.0322    0.2395 C   0  0  0  0  0  0  0  0  0  0  0  0
    6.4649    0.8485    0.7921 C   0  0  0  0  0  0  0  0  0  0  0  0
    7.7935    0.4055    0.1936 C   0  0  0  0  0  0  0  0  0  0  0  0
    8.8556    1.1651    0.7542 O   0  0  0  0  0  0  0  0  0  0  0  0
   -0.6276    0.2437    1.2234 N   0  0  0  0  0  0  0  0  0  0  0  0
   -1.8388   -0.1867    1.0062 C   0  0  0  0  0  0  0  0  0  0  0  0
   -2.9329    0.3661    1.6237 N   0  0  0  0  0  0  0  0  0  0  0  0
   -4.0902    0.8122    0.9336 C   0  0  0  0  0  0  0  0  0  0  0  0
   -5.3306    0.5114    1.5229 C   0  0  0  0  0  0  0  0  0  0  0  0
   -6.5244    0.9408    0.9461 C   0  0  0  0  0  0  0  0  0  0  0  0
   -6.4855    1.6993   -0.2123 C   0  0  0  0  0  0  0  0  0  0  0  0
   -7.6726    2.0944   -0.7528 O   0  0  0  0  0  0  0  0  0  0  0  0
   -5.2700    2.0534   -0.7903 C   0  0  0  0  0  0  0  0  0  0  0  0
   -4.0564    1.6396   -0.2088 C   0  0  0  0  0  0  0  0  0  0  0  0
   -2.7717    2.0961   -0.8463 C   0  0  0  0  0  0  0  0  0  0  0  0
   -2.0749   -1.3130    0.1326 C   0  0  0  0  0  0  0  0  0  0  0  0
   -3.1625   -2.0785   -0.3145 C   0  0  0  0  0  0  0  0  0  0  0  0
   -2.7872   -3.0571   -1.1542 N   0  0  0  0  0  0  0  0  0  0  0  0
   -1.4420   -2.9177   -1.2344 N   0  0  0  0  0  0  0  0  0  0  0  0
   -0.6935   -3.8296   -2.0610 C   0  0  0  0  0  0  0  0  0  0  0  0
   -0.9913   -1.8860   -0.4743 C   0  0  0  0  0  0  0  0  0  0  0  0
    1.0784   -1.8395   -0.6940 H   0  0  0  0  0  0  0  0  0  0  0  0
    2.7638   -0.2410   -0.8020 H   0  0  0  0  0  0  0  0  0  0  0  0
    2.9422   -1.3807    0.5582 H   0  0  0  0  0  0  0  0  0  0  0  0
    3.8073    1.5566    0.5954 H   0  0  0  0  0  0  0  0  0  0  0  0
    3.9965    0.4173    1.9234 H   0  0  0  0  0  0  0  0  0  0  0  0
    5.2683    0.1264   -0.8528 H   0  0  0  0  0  0  0  0  0  0  0  0
    5.4522   -1.0293    0.4685 H   0  0  0  0  0  0  0  0  0  0  0  0
    6.3114    1.9154    0.5875 H   0  0  0  0  0  0  0  0  0  0  0  0
    6.5099    0.7560    1.8844 H   0  0  0  0  0  0  0  0  0  0  0  0
    7.8055    0.5425   -0.8925 H   0  0  0  0  0  0  0  0  0  0  0  0
    7.9853   -0.6504    0.4080 H   0  0  0  0  0  0  0  0  0  0  0  0
    8.6695    2.1037    0.5807 H   0  0  0  0  0  0  0  0  0  0  0  0
   -2.6120    1.1254    2.2222 H   0  0  0  0  0  0  0  0  0  0  0  0
   -5.3682   -0.0849    2.4323 H   0  0  0  0  0  0  0  0  0  0  0  0
   -7.4773    0.6829    1.3989 H   0  0  0  0  0  0  0  0  0  0  0  0
   -7.4944    2.5983   -1.5637 H   0  0  0  0  0  0  0  0  0  0  0  0
   -5.2529    2.6664   -1.6875 H   0  0  0  0  0  0  0  0  0  0  0  0
   -2.3222    1.2844   -1.4253 H   0  0  0  0  0  0  0  0  0  0  0  0
   -2.0658    2.4509   -0.0891 H   0  0  0  0  0  0  0  0  0  0  0  0
   -2.9440    2.9365   -1.5279 H   0  0  0  0  0  0  0  0  0  0  0  0
   -4.2124   -1.9755   -0.0729 H   0  0  0  0  0  0  0  0  0  0  0  0
   -1.0827   -3.7705   -3.0806 H   0  0  0  0  0  0  0  0  0  0  0  0
   -0.8197   -4.8389   -1.6611 H   0  0  0  0  0  0  0  0  0  0  0  0
    0.3639   -3.5573   -2.0540 H   0  0  0  0  0  0  0  0  0  0  0  0
  1  2  1  0
  2  3  2  3
  3  4  1  0
  4  5  1  0
  5  6  1  0
  6  7  1  0
  7  8  1  0
  8  9  1  0
  2 10  1  0
 10 11  2  0
 11 12  1  0
 12 13  1  0
 13 14  2  0
 14 15  1  0
 15 16  2  0
 16 17  1  0
 16 18  1  0
 18 19  2  0
 19 20  1  0
 11 21  1  0
 21 22  1  0
 22 23  2  0
 23 24  1  0
 24 25  1  0
 24 26  1  0
 26  1  1  0
 19 13  1  0
 26 21  2  0
  1 27  1  0
  4 28  1  0
  4 29  1  0
  5 30  1  0
  5 31  1  0
  6 32  1  0
  6 33  1  0
  7 34  1  0
  7 35  1  0
  8 36  1  0
  8 37  1  0
  9 38  1  0
 12 39  1  0
 14 40  1  0
 15 41  1  0
 17 42  1  0
 18 43  1  0
 20 44  1  0
 20 45  1  0
 20 46  1  0
 22 47  1  0
 25 48  1  0
 25 49  1  0
 25 50  1  0
M  END
>  <ScrubInfo>  (4) 
{"isomerGroup": 0, "isomerId": 3, "confId": 0, "nr_conformers:": 1, "nr_isomers:": 9}

$$$$
_i4
     RDKit          3D

 50 52  0  0  0  0  0  0  0  0999 V2000
    0.5591   -1.0482    0.0651 N   0  0  0  0  0  0  0  0  0  0  0  0
    0.6861    0.2494    0.4910 C   0  0  0  0  0  0  0  0  0  0  0  0
    1.9708    0.6555    0.7136 N   0  0  0  0  0  0  0  0  0  0  0  0
    2.8148   -0.0292    1.6864 C   0  0  0  0  0  0  0  0  0  0  0  0
    4.2506    0.4881    1.5928 C   0  0  0  0  0  0  0  0  0  0  0  0
    4.9494    0.0286    0.3088 C   0  0  0  0  0  0  0  0  0  0  0  0
    6.3795    0.5711    0.2287 C   0  0  0  0  0  0  0  0  0  0  0  0
    7.1292    0.0439   -0.9901 C   0  0  0  0  0  0  0  0  0  0  0  0
    6.4669    0.4077   -2.1921 O   0  0  0  0  0  0  0  0  0  0  0  0
   -0.2914    1.0912    0.6636 N   0  0  0  0  0  0  0  0  0  0  0  0
   -1.6011    0.6860    0.4295 C   0  0  0  0  0  0  0  0  0  0  0  0
   -2.5183    1.5621    0.6919 N   0  0  0  0  0  0  0  0  0  0  0  0
   -3.8788    1.3013    0.5150 C   0  0  0  0  0  0  0  0  0  0  0  0
   -4.6094    0.7466    1.5750 C   0  0  0  0  0  0  0  0  0  0  0  0
   -5.9751    0.4903    1.4453 C   0  0  0  0  0  0  0  0  0  0  0  0
   -6.6130    0.8064    0.2524 C   0  0  0  0  0  0  0  0  0  0  0  0
   -7.9440    0.5703    0.0753 O   0  0  0  0  0  0  0  0  0  0  0  0
   -5.9120    1.3829   -0.8022 C   0  0  0  0  0  0  0  0  0  0  0  0
   -4.5405    1.6515   -0.6762 C   0  0  0  0  0  0  0  0  0  0  0  0
   -3.7940    2.2861   -1.8150 C   0  0  0  0  0  0  0  0  0  0  0  0
   -1.7826   -0.6644   -0.0801 C   0  0  0  0  0  0  0  0  0  0  0  0
   -2.8412   -1.4800   -0.5203 C   0  0  0  0  0  0  0  0  0  0  0  0
   -2.4321   -2.6942   -0.9237 N   0  0  0  0  0  0  0  0  0  0  0  0
   -1.0922   -2.6557   -0.7489 N   0  0  0  0  0  0  0  0  0  0  0  0
   -0.3067   -3.8125   -1.0953 C   0  0  0  0  0  0  0  0  0  0  0  0
   -0.6803   -1.4664   -0.2403 C   0  0  0  0  0  0  0  0  0  0  0  0
    1.4051   -1.5069   -0.2458 H   0  0  0  0  0  0  0  0  0  0  0  0
    1.9372    1.6525    0.9260 H   0  0  0  0  0  0  0  0  0  0  0  0
    2.4247    0.1652    2.6922 H   0  0  0  0  0  0  0  0  0  0  0  0
    2.8018   -1.1138    1.5311 H   0  0  0  0  0  0  0  0  0  0  0  0
    4.8135    0.1151    2.4571 H   0  0  0  0  0  0  0  0  0  0  0  0
    4.2603    1.5836    1.6503 H   0  0  0  0  0  0  0  0  0  0  0  0
    4.3800    0.3648   -0.5655 H   0  0  0  0  0  0  0  0  0  0  0  0
    4.9704   -1.0676    0.2788 H   0  0  0  0  0  0  0  0  0  0  0  0
    6.3378    1.6661    0.1830 H   0  0  0  0  0  0  0  0  0  0  0  0
    6.9343    0.2986    1.1338 H   0  0  0  0  0  0  0  0  0  0  0  0
    8.1460    0.4482   -1.0195 H   0  0  0  0  0  0  0  0  0  0  0  0
    7.2008   -1.0478   -0.9586 H   0  0  0  0  0  0  0  0  0  0  0  0
    6.4175    1.3788   -2.2191 H   0  0  0  0  0  0  0  0  0  0  0  0
   -4.1023    0.5153    2.5083 H   0  0  0  0  0  0  0  0  0  0  0  0
   -6.5150    0.0532    2.2786 H   0  0  0  0  0  0  0  0  0  0  0  0
   -8.3016    0.1835    0.8911 H   0  0  0  0  0  0  0  0  0  0  0  0
   -6.4419    1.6292   -1.7189 H   0  0  0  0  0  0  0  0  0  0  0  0
   -4.4774    2.6279   -2.5995 H   0  0  0  0  0  0  0  0  0  0  0  0
   -3.1017    1.5657   -2.2618 H   0  0  0  0  0  0  0  0  0  0  0  0
   -3.2348    3.1612   -1.4680 H   0  0  0  0  0  0  0  0  0  0  0  0
   -3.8983   -1.2595   -0.5793 H   0  0  0  0  0  0  0  0  0  0  0  0
   -0.7431   -4.6880   -0.6077 H   0  0  0  0  0  0  0  0  0  0  0  0
    0.7225   -3.6796   -0.7553 H   0  0  0  0  0  0  0  0  0  0  0  0
   -0.3298   -3.9288   -2.1817 H   0  0  0  0  0  0  0  0  0  0  0  0
  1  2  1  0
  2  3  1  0
  3  4  1  0
  4  5  1  0
  5  6  1  0
  6  7  1  0
  7  8  1  0
  8  9  1  0
  2 10  2  0
 10 11  1  0
 11 12  2  3
 12 13  1  0
 13 14  2  0
 14 15  1  0
 15 16  2  0
 16 17  1  0
 16 18  1  0
 18 19  2  0
 19 20  1  0
 11 21  1  0
 21 22  1  0
 22 23  2  0
 23 24  1  0
 24 25  1  0
 24 26  1  0
 26  1  1  0
 19 13  1  0
 26 21  2  0
  1 27  1  0
  3 28  1  0
  4 29  1  0
  4 30  1  0
  5 31  1  0
  5 32  1  0
  6 33  1  0
  6 34  1  0
  7 35  1  0
  7 36  1  0
  8 37  1  0
  8 38  1  0
  9 39  1  0
 14 40  1  0
 15 41  1  0
 17 42  1  0
 18 43  1  0
 20 44  1  0
 20 45  1  0
 20 46  1  0
 22 47  1  0
 25 48  1  0
 25 49  1  0
 25 50  1  0
M  END
>  <ScrubInfo>  (5) 
{"isomerGroup": 0, "isomerId": 4, "confId": 0, "nr_conformers:": 1, "nr_isomers:": 9}

$$$$
_i5
     RDKit          3D

 50 52  0  0  0  0  0  0  0  0999 V2000
   -2.7807   -3.1714    0.1013 N   0  0  0  0  0  0  0  0  0  0  0  0
   -2.8054   -1.7868   -0.0335 C   0  0  0  0  0  0  0  0  0  0  0  0
   -1.5893   -1.2215    0.0149 C   0  0  0  0  0  0  0  0  0  0  0  0
   -0.9838    0.1034   -0.0280 C   0  0  0  0  0  0  0  0  0  0  0  0
   -1.5177    1.2667   -0.2036 N   0  0  0  0  0  0  0  0  0  0  0  0
   -2.8948    1.3971   -0.4095 C   0  0  0  0  0  0  0  0  0  0  0  0
   -3.4018    1.3134   -1.7126 C   0  0  0  0  0  0  0  0  0  0  0  0
   -4.7694    1.4414   -1.9521 C   0  0  0  0  0  0  0  0  0  0  0  0
   -5.6301    1.6726   -0.8879 C   0  0  0  0  0  0  0  0  0  0  0  0
   -6.9606    1.7881   -1.1620 O   0  0  0  0  0  0  0  0  0  0  0  0
   -5.1457    1.7878    0.4127 C   0  0  0  0  0  0  0  0  0  0  0  0
   -3.7690    1.6642    0.6612 C   0  0  0  0  0  0  0  0  0  0  0  0
   -3.2433    1.7993    2.0628 C   0  0  0  0  0  0  0  0  0  0  0  0
    0.3721    0.0973    0.1598 N   0  0  0  0  0  0  0  0  0  0  0  0
    1.0711   -0.9849    0.3103 C   0  0  0  0  0  0  0  0  0  0  0  0
    2.4228   -0.9289    0.4903 N   0  0  0  0  0  0  0  0  0  0  0  0
    3.1022    0.2718    0.9357 C   0  0  0  0  0  0  0  0  0  0  0  0
    4.6176    0.0607    0.9218 C   0  0  0  0  0  0  0  0  0  0  0  0
    5.2211   -0.1990   -0.4640 C   0  0  0  0  0  0  0  0  0  0  0  0
    4.9683    0.8698   -1.5346 C   0  0  0  0  0  0  0  0  0  0  0  0
    5.6106    2.2212   -1.2426 C   0  0  0  0  0  0  0  0  0  0  0  0
    4.9453    2.8728   -0.1721 O   0  0  0  0  0  0  0  0  0  0  0  0
    0.5677   -2.2584    0.3111 N   0  0  0  0  0  0  0  0  0  0  0  0
   -0.7026   -2.3916    0.1526 C   0  0  0  0  0  0  0  0  0  0  0  0
   -1.4515   -3.5686    0.0991 N   0  0  0  0  0  0  0  0  0  0  0  0
   -1.0623   -4.7381    0.8623 C   0  0  0  0  0  0  0  0  0  0  0  0
   -3.3939   -3.6493   -0.5634 H   0  0  0  0  0  0  0  0  0  0  0  0
   -3.7630   -1.3040   -0.1622 H   0  0  0  0  0  0  0  0  0  0  0  0
   -2.7203    1.1492   -2.5432 H   0  0  0  0  0  0  0  0  0  0  0  0
   -5.1570    1.3706   -2.9639 H   0  0  0  0  0  0  0  0  0  0  0  0
   -7.4266    2.0250   -0.3434 H   0  0  0  0  0  0  0  0  0  0  0  0
   -5.8251    1.9797    1.2380 H   0  0  0  0  0  0  0  0  0  0  0  0
   -2.8799    0.8327    2.4254 H   0  0  0  0  0  0  0  0  0  0  0  0
   -2.4299    2.5313    2.0993 H   0  0  0  0  0  0  0  0  0  0  0  0
   -4.0225    2.1453    2.7502 H   0  0  0  0  0  0  0  0  0  0  0  0
    2.7947   -1.8042    0.8340 H   0  0  0  0  0  0  0  0  0  0  0  0
    2.8257    1.1298    0.3152 H   0  0  0  0  0  0  0  0  0  0  0  0
    2.7883    0.4983    1.9614 H   0  0  0  0  0  0  0  0  0  0  0  0
    4.8649   -0.7953    1.5635 H   0  0  0  0  0  0  0  0  0  0  0  0
    5.1056    0.9264    1.3821 H   0  0  0  0  0  0  0  0  0  0  0  0
    6.3040   -0.3338   -0.3480 H   0  0  0  0  0  0  0  0  0  0  0  0
    4.8387   -1.1555   -0.8418 H   0  0  0  0  0  0  0  0  0  0  0  0
    3.8907    0.9941   -1.6876 H   0  0  0  0  0  0  0  0  0  0  0  0
    5.3804    0.4959   -2.4800 H   0  0  0  0  0  0  0  0  0  0  0  0
    5.5337    2.8614   -2.1275 H   0  0  0  0  0  0  0  0  0  0  0  0
    6.6686    2.1081   -0.9860 H   0  0  0  0  0  0  0  0  0  0  0  0
    5.3112    3.7719   -0.1127 H   0  0  0  0  0  0  0  0  0  0  0  0
   -0.0352   -5.0310    0.6223 H   0  0  0  0  0  0  0  0  0  0  0  0
   -1.1287   -4.5412    1.9375 H   0  0  0  0  0  0  0  0  0  0  0  0
   -1.7151   -5.5838    0.6228 H   0  0  0  0  0  0  0  0  0  0  0  0
  1  2  1  0
  2  3  2  0
  3  4  1  0
  4  5  2  3
  5  6  1  0
  6  7  2  0
  7  8  1  0
  8  9  2  0
  9 10  1  0
  9 11  1  0
 11 12  2  0
 12 13  1  0
  4 14  1  0
 14 15  2  0
 15 16  1  0
 16 17  1  0
 17 18  1  0
 18 19  1  0
 19 20  1  0
 20 21  1  0
 21 22  1  0
 15 23  1  0
 23 24  2  0
 24 25  1  0
 25 26  1  0
 25  1  1  0
 24  3  1  0
 12  6  1  0
  1 27  1  0
  2 28  1  0
  7 29  1  0
  8 30  1  0
 10 31  1  0
 11 32  1  0
 13 33  1  0
 13 34  1  0
 13 35  1  0
 16 36  1  0
 17 37  1  0
 17 38  1  0
 18 39  1  0
 18 40  1  0
 19 41  1  0
 19 42  1  0
 20 43  1  0
 20 44  1  0
 21 45  1  0
 21 46  1  0
 22 47  1  0
 26 48  1  0
 26 49  1  0
 26 50  1  0
M  END
>  <ScrubInfo>  (6) 
{"isomerGroup": 0, "isomerId": 5, "confId": 0, "nr_conformers:": 1, "nr_isomers:": 9}

$$$$
_i6
     RDKit          3D

 50 52  0  0  0  0  0  0  0  0999 V2000
   -0.9911   -4.3002   -0.9998 N   0  0  0  0  0  0  0  0  0  0  0  0
   -1.8953   -3.3131   -0.6226 C   0  0  0  0  0  0  0  0  0  0  0  0
   -1.3173   -2.1181   -0.4353 C   0  0  0  0  0  0  0  0  0  0  0  0
   -1.7133   -0.7512   -0.0786 C   0  0  0  0  0  0  0  0  0  0  0  0
   -3.0400   -0.4935    0.2193 N   0  0  0  0  0  0  0  0  0  0  0  0
   -3.7019    0.7367    0.4351 C   0  0  0  0  0  0  0  0  0  0  0  0
   -3.1015    1.9774    0.1720 C   0  0  0  0  0  0  0  0  0  0  0  0
   -3.7678    3.1818    0.4170 C   0  0  0  0  0  0  0  0  0  0  0  0
   -5.0470    3.1648    0.9430 C   0  0  0  0  0  0  0  0  0  0  0  0
   -5.6626    4.3598    1.1652 O   0  0  0  0  0  0  0  0  0  0  0  0
   -5.6713    1.9592    1.2346 C   0  0  0  0  0  0  0  0  0  0  0  0
   -5.0066    0.7402    0.9951 C   0  0  0  0  0  0  0  0  0  0  0  0
   -5.7232   -0.5373    1.3489 C   0  0  0  0  0  0  0  0  0  0  0  0
   -0.7671    0.1414   -0.0507 N   0  0  0  0  0  0  0  0  0  0  0  0
    0.5268   -0.2013   -0.3673 C   0  0  0  0  0  0  0  0  0  0  0  0
    1.3356    0.7976   -0.3787 N   0  0  0  0  0  0  0  0  0  0  0  0
    2.7415    0.5831   -0.7069 C   0  0  0  0  0  0  0  0  0  0  0  0
    3.5329    0.3201    0.5739 C   0  0  0  0  0  0  0  0  0  0  0  0
    5.0180    0.0441    0.3255 C   0  0  0  0  0  0  0  0  0  0  0  0
    5.7958    1.1753   -0.3483 C   0  0  0  0  0  0  0  0  0  0  0  0
    5.8003    2.4745    0.4472 C   0  0  0  0  0  0  0  0  0  0  0  0
    6.6289    3.4280   -0.2079 O   0  0  0  0  0  0  0  0  0  0  0  0
    0.9973   -1.4632   -0.6482 N   0  0  0  0  0  0  0  0  0  0  0  0
    0.1151   -2.3991   -0.6713 C   0  0  0  0  0  0  0  0  0  0  0  0
    0.2880   -3.7619   -0.9148 N   0  0  0  0  0  0  0  0  0  0  0  0
    1.3176   -4.2329   -1.8218 C   0  0  0  0  0  0  0  0  0  0  0  0
   -1.1328   -5.1943   -0.5235 H   0  0  0  0  0  0  0  0  0  0  0  0
   -2.9367   -3.5786   -0.5180 H   0  0  0  0  0  0  0  0  0  0  0  0
   -3.6671   -1.2834    0.1940 H   0  0  0  0  0  0  0  0  0  0  0  0
   -2.1016    2.0435   -0.2476 H   0  0  0  0  0  0  0  0  0  0  0  0
   -3.2784    4.1261    0.1959 H   0  0  0  0  0  0  0  0  0  0  0  0
   -6.5347    4.1942    1.5577 H   0  0  0  0  0  0  0  0  0  0  0  0
   -6.6729    1.9542    1.6549 H   0  0  0  0  0  0  0  0  0  0  0  0
   -5.9366   -1.1138    0.4431 H   0  0  0  0  0  0  0  0  0  0  0  0
   -6.6774   -0.3415    1.8497 H   0  0  0  0  0  0  0  0  0  0  0  0
   -5.1162   -1.1384    2.0336 H   0  0  0  0  0  0  0  0  0  0  0  0
    2.8950   -0.2168   -1.4409 H   0  0  0  0  0  0  0  0  0  0  0  0
    3.1038    1.4991   -1.1860 H   0  0  0  0  0  0  0  0  0  0  0  0
    3.1080   -0.5493    1.0915 H   0  0  0  0  0  0  0  0  0  0  0  0
    3.4136    1.1635    1.2642 H   0  0  0  0  0  0  0  0  0  0  0  0
    5.4929   -0.1885    1.2868 H   0  0  0  0  0  0  0  0  0  0  0  0
    5.1130   -0.8586   -0.2908 H   0  0  0  0  0  0  0  0  0  0  0  0
    6.8336    0.8495   -0.4962 H   0  0  0  0  0  0  0  0  0  0  0  0
    5.4115    1.3611   -1.3582 H   0  0  0  0  0  0  0  0  0  0  0  0
    6.2022    2.3139    1.4523 H   0  0  0  0  0  0  0  0  0  0  0  0
    4.7979    2.9023    0.5397 H   0  0  0  0  0  0  0  0  0  0  0  0
    6.2140    3.6279   -1.0647 H   0  0  0  0  0  0  0  0  0  0  0  0
    1.1149   -3.9020   -2.8457 H   0  0  0  0  0  0  0  0  0  0  0  0
    2.2997   -3.8555   -1.5191 H   0  0  0  0  0  0  0  0  0  0  0  0
    1.3622   -5.3267   -1.8117 H   0  0  0  0  0  0  0  0  0  0  0  0
  1  2  1  0
  2  3  2  0
  3  4  1  0
  4  5  1  0
  5  6  1  0
  6  7  2  0
  7  8  1  0
  8  9  2  0
  9 10  1  0
  9 11  1  0
 11 12  2  0
 12 13  1  0
  4 14  2  0
 14 15  1  0
 15 16  2  3
 16 17  1  0
 17 18  1  0
 18 19  1  0
 19 20  1  0
 20 21  1  0
 21 22  1  0
 15 23  1  0
 23 24  2  0
 24 25  1  0
 25 26  1  0
 25  1  1  0
 24  3  1  0
 12  6  1  0
  1 27  1  0
  2 28  1  0
  5 29  1  0
  7 30  1  0
  8 31  1  0
 10 32  1  0
 11 33  1  0
 13 34  1  0
 13 35  1  0
 13 36  1  0
 17 37  1  0
 17 38  1  0
 18 39  1  0
 18 40  1  0
 19 41  1  0
 19 42  1  0
 20 43  1  0
 20 44  1  0
 21 45  1  0
 21 46  1  0
 22 47  1  0
 26 48  1  0
 26 49  1  0
 26 50  1  0
M  END
>  <ScrubInfo>  (7) 
{"isomerGroup": 0, "isomerId": 6, "confId": 0, "nr_conformers:": 1, "nr_isomers:": 9}

$$$$
_i7
     RDKit          3D

 50 52  0  0  0  0  0  0  0  0999 V2000
    0.0932   -2.0190   -0.4759 N   0  0  0  0  0  0  0  0  0  0  0  0
   -0.0587   -0.6954   -0.0875 C   0  0  0  0  0  0  0  0  0  0  0  0
    0.8603    0.1309    0.2847 N   0  0  0  0  0  0  0  0  0  0  0  0
    2.2424   -0.3379    0.3171 C   0  0  0  0  0  0  0  0  0  0  0  0
    3.1227    0.8025    0.8256 C   0  0  0  0  0  0  0  0  0  0  0  0
    4.5973    0.3985    0.8525 C   0  0  0  0  0  0  0  0  0  0  0  0
    5.4739    1.5300    1.3964 C   0  0  0  0  0  0  0  0  0  0  0  0
    6.9554    1.1738    1.3766 C   0  0  0  0  0  0  0  0  0  0  0  0
    7.1968    0.0509    2.2123 O   0  0  0  0  0  0  0  0  0  0  0  0
   -1.3666   -0.2529   -0.1201 N   0  0  0  0  0  0  0  0  0  0  0  0
   -2.5345   -0.8992   -0.4734 C   0  0  0  0  0  0  0  0  0  0  0  0
   -3.7596   -0.4901   -0.5090 N   0  0  0  0  0  0  0  0  0  0  0  0
   -4.0174    0.8360   -0.1321 C   0  0  0  0  0  0  0  0  0  0  0  0
   -4.3189    1.1134    1.2078 C   0  0  0  0  0  0  0  0  0  0  0  0
   -4.5666    2.4204    1.6291 C   0  0  0  0  0  0  0  0  0  0  0  0
   -4.5182    3.4517    0.6998 C   0  0  0  0  0  0  0  0  0  0  0  0
   -4.7464    4.7457    1.0628 O   0  0  0  0  0  0  0  0  0  0  0  0
   -4.2376    3.1950   -0.6385 C   0  0  0  0  0  0  0  0  0  0  0  0
   -3.9990    1.8821   -1.0719 C   0  0  0  0  0  0  0  0  0  0  0  0
   -3.7015    1.6165   -2.5204 C   0  0  0  0  0  0  0  0  0  0  0  0
   -2.2670   -2.2636   -0.8611 C   0  0  0  0  0  0  0  0  0  0  0  0
   -3.0479   -3.3415   -1.3023 C   0  0  0  0  0  0  0  0  0  0  0  0
   -2.3116   -4.4367   -1.5459 N   0  0  0  0  0  0  0  0  0  0  0  0
   -1.0464   -4.0500   -1.2507 N   0  0  0  0  0  0  0  0  0  0  0  0
    0.0249   -5.0015   -1.4040 C   0  0  0  0  0  0  0  0  0  0  0  0
   -0.9833   -2.7521   -0.8423 C   0  0  0  0  0  0  0  0  0  0  0  0
    1.0312   -2.3949   -0.4711 H   0  0  0  0  0  0  0  0  0  0  0  0
    2.5685   -0.6316   -0.6877 H   0  0  0  0  0  0  0  0  0  0  0  0
    2.3420   -1.1995    0.9880 H   0  0  0  0  0  0  0  0  0  0  0  0
    2.9914    1.6832    0.1843 H   0  0  0  0  0  0  0  0  0  0  0  0
    2.7973    1.0948    1.8319 H   0  0  0  0  0  0  0  0  0  0  0  0
    4.9234    0.1362   -0.1613 H   0  0  0  0  0  0  0  0  0  0  0  0
    4.7183   -0.4974    1.4731 H   0  0  0  0  0  0  0  0  0  0  0  0
    5.3166    2.4389    0.8043 H   0  0  0  0  0  0  0  0  0  0  0  0
    5.1688    1.7478    2.4272 H   0  0  0  0  0  0  0  0  0  0  0  0
    7.5474    2.0157    1.7494 H   0  0  0  0  0  0  0  0  0  0  0  0
    7.2866    0.9340    0.3611 H   0  0  0  0  0  0  0  0  0  0  0  0
    8.1559   -0.1097    2.2030 H   0  0  0  0  0  0  0  0  0  0  0  0
   -1.4621    0.7132    0.1585 H   0  0  0  0  0  0  0  0  0  0  0  0
   -4.3601    0.2978    1.9256 H   0  0  0  0  0  0  0  0  0  0  0  0
   -4.7941    2.6084    2.6732 H   0  0  0  0  0  0  0  0  0  0  0  0
   -4.9582    4.7706    2.0103 H   0  0  0  0  0  0  0  0  0  0  0  0
   -4.2145    4.0231   -1.3427 H   0  0  0  0  0  0  0  0  0  0  0  0
   -4.3155    0.7913   -2.8956 H   0  0  0  0  0  0  0  0  0  0  0  0
   -2.6430    1.3696   -2.6491 H   0  0  0  0  0  0  0  0  0  0  0  0
   -3.9236    2.4918   -3.1401 H   0  0  0  0  0  0  0  0  0  0  0  0
   -4.1187   -3.3759   -1.4578 H   0  0  0  0  0  0  0  0  0  0  0  0
    0.1835   -5.1677   -2.4723 H   0  0  0  0  0  0  0  0  0  0  0  0
   -0.2633   -5.9335   -0.9108 H   0  0  0  0  0  0  0  0  0  0  0  0
    0.9367   -4.6136   -0.9454 H   0  0  0  0  0  0  0  0  0  0  0  0
  1  2  1  0
  2  3  2  3
  3  4  1  0
  4  5  1  0
  5  6  1  0
  6  7  1  0
  7  8  1  0
  8  9  1  0
  2 10  1  0
 10 11  1  0
 11 12  2  3
 12 13  1  0
 13 14  2  0
 14 15  1  0
 15 16  2  0
 16 17  1  0
 16 18  1  0
 18 19  2  0
 19 20  1  0
 11 21  1  0
 21 22  1  0
 22 23  2  0
 23 24  1  0
 24 25  1  0
 24 26  1  0
 26  1  1  0
 19 13  1  0
 26 21  2  0
  1 27  1  0
  4 28  1  0
  4 29  1  0
  5 30  1  0
  5 31  1  0
  6 32  1  0
  6 33  1  0
  7 34  1  0
  7 35  1  0
  8 36  1  0
  8 37  1  0
  9 38  1  0
 10 39  1  0
 14 40  1  0
 15 41  1  0
 17 42  1  0
 18 43  1  0
 20 44  1  0
 20 45  1  0
 20 46  1  0
 22 47  1  0
 25 48  1  0
 25 49  1  0
 25 50  1  0
M  END
>  <ScrubInfo>  (8) 
{"isomerGroup": 0, "isomerId": 7, "confId": 0, "nr_conformers:": 1, "nr_isomers:": 9}

$$$$
_i8
     RDKit          3D

 50 52  0  0  0  0  0  0  0  0999 V2000
   -2.6709   -3.0022   -0.7329 N   0  0  0  0  0  0  0  0  0  0  0  0
   -2.7491   -1.6312   -0.5141 C   0  0  0  0  0  0  0  0  0  0  0  0
   -1.5679   -1.0659   -0.2267 C   0  0  0  0  0  0  0  0  0  0  0  0
   -0.9937    0.2454    0.1257 C   0  0  0  0  0  0  0  0  0  0  0  0
   -1.5803    1.4023    0.2273 N   0  0  0  0  0  0  0  0  0  0  0  0
   -2.9513    1.5342   -0.0242 C   0  0  0  0  0  0  0  0  0  0  0  0
   -3.3824    1.7972   -1.3306 C   0  0  0  0  0  0  0  0  0  0  0  0
   -4.7397    1.9408   -1.6148 C   0  0  0  0  0  0  0  0  0  0  0  0
   -5.6673    1.8382   -0.5874 C   0  0  0  0  0  0  0  0  0  0  0  0
   -6.9849    1.9796   -0.9068 O   0  0  0  0  0  0  0  0  0  0  0  0
   -5.2601    1.6035    0.7235 C   0  0  0  0  0  0  0  0  0  0  0  0
   -3.8942    1.4633    1.0189 C   0  0  0  0  0  0  0  0  0  0  0  0
   -3.4557    1.2155    2.4349 C   0  0  0  0  0  0  0  0  0  0  0  0
    0.3509    0.1794    0.3800 N   0  0  0  0  0  0  0  0  0  0  0  0
    1.1541   -0.9324    0.3287 C   0  0  0  0  0  0  0  0  0  0  0  0
    2.4098   -0.9811    0.6029 N   0  0  0  0  0  0  0  0  0  0  0  0
    3.0960    0.2396    1.0109 C   0  0  0  0  0  0  0  0  0  0  0  0
    4.5869   -0.0537    1.1776 C   0  0  0  0  0  0  0  0  0  0  0  0
    5.3032   -0.4840   -0.1070 C   0  0  0  0  0  0  0  0  0  0  0  0
    5.2348    0.4906   -1.2897 C   0  0  0  0  0  0  0  0  0  0  0  0
    5.8861    1.8435   -1.0264 C   0  0  0  0  0  0  0  0  0  0  0  0
    5.0507    2.6525   -0.2100 O   0  0  0  0  0  0  0  0  0  0  0  0
    0.6413   -2.1569   -0.0468 N   0  0  0  0  0  0  0  0  0  0  0  0
   -0.6219   -2.2302   -0.3232 C   0  0  0  0  0  0  0  0  0  0  0  0
   -1.3307   -3.3609   -0.7362 N   0  0  0  0  0  0  0  0  0  0  0  0
   -0.9481   -4.6854   -0.2856 C   0  0  0  0  0  0  0  0  0  0  0  0
   -3.2214   -3.3151   -1.5359 H   0  0  0  0  0  0  0  0  0  0  0  0
   -3.7169   -1.1581   -0.5906 H   0  0  0  0  0  0  0  0  0  0  0  0
   -2.6517    1.8894   -2.1297 H   0  0  0  0  0  0  0  0  0  0  0  0
   -5.0690    2.1387   -2.6307 H   0  0  0  0  0  0  0  0  0  0  0  0
   -7.5092    1.9467   -0.0898 H   0  0  0  0  0  0  0  0  0  0  0  0
   -5.9926    1.5334    1.5224 H   0  0  0  0  0  0  0  0  0  0  0  0
   -3.0836    0.1918    2.5418 H   0  0  0  0  0  0  0  0  0  0  0  0
   -2.6694    1.9206    2.7233 H   0  0  0  0  0  0  0  0  0  0  0  0
   -4.2841    1.3487    3.1388 H   0  0  0  0  0  0  0  0  0  0  0  0
    0.7749    1.0564    0.6353 H   0  0  0  0  0  0  0  0  0  0  0  0
    2.9463    1.0426    0.2823 H   0  0  0  0  0  0  0  0  0  0  0  0
    2.7020    0.5801    1.9761 H   0  0  0  0  0  0  0  0  0  0  0  0
    4.7110   -0.8535    1.9192 H   0  0  0  0  0  0  0  0  0  0  0  0
    5.0824    0.8280    1.5988 H   0  0  0  0  0  0  0  0  0  0  0  0
    6.3574   -0.6701    0.1347 H   0  0  0  0  0  0  0  0  0  0  0  0
    4.8962   -1.4485   -0.4356 H   0  0  0  0  0  0  0  0  0  0  0  0
    4.1926    0.6283   -1.5980 H   0  0  0  0  0  0  0  0  0  0  0  0
    5.7564    0.0196   -2.1321 H   0  0  0  0  0  0  0  0  0  0  0  0
    6.0331    2.3706   -1.9747 H   0  0  0  0  0  0  0  0  0  0  0  0
    6.8589    1.7274   -0.5382 H   0  0  0  0  0  0  0  0  0  0  0  0
    5.5131    3.4992   -0.0867 H   0  0  0  0  0  0  0  0  0  0  0  0
    0.0997   -4.8886   -0.5286 H   0  0  0  0  0  0  0  0  0  0  0  0
   -1.0830   -4.7819    0.7967 H   0  0  0  0  0  0  0  0  0  0  0  0
   -1.5588   -5.4471   -0.7813 H   0  0  0  0  0  0  0  0  0  0  0  0
  1  2  1  0
  2  3  2  0
  3  4  1  0
  4  5  2  3
  5  6  1  0
  6  7  2  0
  7  8  1  0
  8  9  2  0
  9 10  1  0
  9 11  1  0
 11 12  2  0
 12 13  1  0
  4 14  1  0
 14 15  1  0
 15 16  2  3
 16 17  1  0
 17 18  1  0
 18 19  1  0
 19 20  1  0
 20 21  1  0
 21 22  1  0
 15 23  1  0
 23 24  2  0
 24 25  1  0
 25 26  1  0
 25  1  1  0
 24  3  1  0
 12  6  1  0
  1 27  1  0
  2 28  1  0
  7 29  1  0
  8 30  1  0
 10 31  1  0
 11 32  1  0
 13 33  1  0
 13 34  1  0
 13 35  1  0
 14 36  1  0
 17 37  1  0
 17 38  1  0
 18 39  1  0
 18 40  1  0
 19 41  1  0
 19 42  1  0
 20 43  1  0
 20 44  1  0
 21 45  1  0
 21 46  1  0
 22 47  1  0
 26 48  1  0
 26 49  1  0
 26 50  1  0
M  END
>  <ScrubInfo>  (9) 
{"isomerGroup": 0, "isomerId": 8, "confId": 0, "nr_conformers:": 1, "nr_isomers:": 9}

$$$$
