REMARK SMILES Cc1cc(O)ccc1Nc1nc(NCCCCCO)nc2c1cnn2C
REMARK SMILES IDX 14 1 13 2 12 4 10 5 11 6 22 7 21 8 23 9 20 10 25 11 24 12
REMARK SMILES IDX 26 13 9 14 8 16 2 17 3 18 4 19 7 20 6 21 1 22 5 23 15 25
REMARK SMILES IDX 16 26 17 27 18 28 19 29
REMARK H PARENT 13 3 9 15 5 24 19 30
ROOT
ATOM      1  C   UNL     1       2.705   1.308  -1.226  1.00  0.00     0.116 C 
ENDROOT
BRANCH   1   2
ATOM      2  N   UNL     1       1.812   1.664  -0.138  1.00  0.00    -0.354 N 
ATOM      3  H   UNL     1       1.417   2.597  -0.192  1.00  0.00     0.163 HD
BRANCH   2   4
ATOM      4  C   UNL     1       0.744   0.808   0.092  1.00  0.00     0.226 A 
ATOM      5  C   UNL     1      -1.510   0.694   0.719  1.00  0.00     0.147 A 
ATOM      6  N   UNL     1      -0.399   1.424   0.445  1.00  0.00    -0.195 NA
ATOM      7  C   UNL     1      -1.416  -0.696   0.632  1.00  0.00     0.082 A 
ATOM      8  C   UNL     1      -0.192  -1.214   0.259  1.00  0.00     0.165 A 
ATOM      9  C   UNL     1      -2.234  -1.830   0.820  1.00  0.00     0.149 A 
ATOM     10  N   UNL     1       0.915  -0.515  -0.029  1.00  0.00    -0.193 NA
ATOM     11  N   UNL     1      -0.344  -2.573   0.252  1.00  0.00    -0.250 N 
ATOM     12  N   UNL     1      -1.590  -2.981   0.586  1.00  0.00    -0.179 NA
ATOM     13  C   UNL     1       0.663  -3.555  -0.063  1.00  0.00     0.176 C 
BRANCH   5  14
ATOM     14  N   UNL     1      -2.665   1.407   1.089  1.00  0.00    -0.339 N 
ATOM     15  H   UNL     1      -2.472   2.384   0.880  1.00  0.00     0.168 HD
BRANCH  14  16
ATOM     16  C   UNL     1      -3.987   1.060   0.736  1.00  0.00     0.043 A 
ATOM     17  C   UNL     1      -4.431   0.966  -0.598  1.00  0.00    -0.024 A 
ATOM     18  C   UNL     1      -5.772   0.628  -0.847  1.00  0.00     0.051 A 
ATOM     19  C   UNL     1      -6.660   0.435   0.205  1.00  0.00     0.115 A 
ATOM     20  C   UNL     1      -4.911   0.893   1.780  1.00  0.00     0.030 A 
ATOM     21  C   UNL     1      -6.244   0.573   1.521  1.00  0.00     0.048 A 
ATOM     22  C   UNL     1      -3.516   1.183  -1.772  1.00  0.00     0.047 C 
BRANCH  19  23
ATOM     23  O   UNL     1      -7.949   0.116  -0.103  1.00  0.00    -0.508 OA
ATOM     24  H   UNL     1      -8.447  -0.002   0.722  1.00  0.00     0.293 HD
ENDBRANCH  19  23
ENDBRANCH  14  16
ENDBRANCH   5  14
ENDBRANCH   2   4
ENDBRANCH   1   2
BRANCH   1  25
ATOM     25  C   UNL     1       4.138   1.152  -0.709  1.00  0.00     0.021 C 
BRANCH  25  26
ATOM     26  C   UNL     1       4.322  -0.094   0.164  1.00  0.00     0.004 C 
BRANCH  26  27
ATOM     27  C   UNL     1       5.740  -0.245   0.715  1.00  0.00     0.028 C 
BRANCH  27  28
ATOM     28  C   UNL     1       6.793  -0.491  -0.359  1.00  0.00     0.156 C 
BRANCH  28  29
ATOM     29  O   UNL     1       8.052  -0.749   0.251  1.00  0.00    -0.396 OA
ATOM     30  H   UNL     1       8.268   0.016   0.812  1.00  0.00     0.210 HD
ENDBRANCH  28  29
ENDBRANCH  27  28
ENDBRANCH  26  27
ENDBRANCH  25  26
ENDBRANCH   1  25
TORSDOF 10
