_i0
     RDKit          3D

 41 43  0  0  0  0  0  0  0  0999 V2000
    2.6197    2.9232    2.1827 C   0  0  0  0  0  0  0  0  0  0  0  0
    3.7529    2.1908    1.7337 O   0  0  0  0  0  0  0  0  0  0  0  0
    3.4931    1.4100    0.5673 C   0  0  0  0  0  0  0  0  0  0  0  0
    2.7082    0.1430    0.8903 C   0  0  0  0  0  0  0  0  0  0  0  0
    2.5777   -0.7432   -0.3471 C   0  0  0  0  0  0  0  0  0  0  0  0
    1.7386   -1.9119   -0.0785 N   0  0  0  0  0  0  0  0  0  0  0  0
    0.3427   -1.6947   -0.1253 C   0  0  0  0  0  0  0  0  0  0  0  0
   -0.1138   -0.4579   -0.4067 N   0  0  0  0  0  0  0  0  0  0  0  0
   -1.4470   -0.2322   -0.4450 C   0  0  0  0  0  0  0  0  0  0  0  0
   -1.8455    1.1610   -0.7414 C   0  0  0  0  0  0  0  0  0  0  0  0
   -1.0323    1.9831   -1.5471 C   0  0  0  0  0  0  0  0  0  0  0  0
   -1.3857    3.3052   -1.8382 C   0  0  0  0  0  0  0  0  0  0  0  0
   -2.5634    3.8329   -1.3214 C   0  0  0  0  0  0  0  0  0  0  0  0
   -3.0024    5.4579   -1.6737 Cl  0  0  0  0  0  0  0  0  0  0  0  0
   -3.3856    3.0514   -0.5160 C   0  0  0  0  0  0  0  0  0  0  0  0
   -3.0275    1.7285   -0.2281 C   0  0  0  0  0  0  0  0  0  0  0  0
   -2.3589   -1.2525   -0.2241 C   0  0  0  0  0  0  0  0  0  0  0  0
   -1.9167   -2.5246    0.0730 C   0  0  0  0  0  0  0  0  0  0  0  0
   -2.8372   -3.4822    0.2926 N   0  0  0  0  0  0  0  0  0  0  0  0
   -2.4073   -4.7237    0.6071 C   0  0  0  0  0  0  0  0  0  0  0  0
   -1.0764   -5.0687    0.7174 C   0  0  0  0  0  0  0  0  0  0  0  0
   -0.1306   -4.0783    0.4828 C   0  0  0  0  0  0  0  0  0  0  0  0
   -0.5353   -2.7681    0.1412 C   0  0  0  0  0  0  0  0  0  0  0  0
    2.9358    3.5649    3.0098 H   0  0  0  0  0  0  0  0  0  0  0  0
    1.8404    2.2518    2.5521 H   0  0  0  0  0  0  0  0  0  0  0  0
    2.2261    3.5581    1.3831 H   0  0  0  0  0  0  0  0  0  0  0  0
    4.4698    1.1363    0.1530 H   0  0  0  0  0  0  0  0  0  0  0  0
    2.9811    2.0183   -0.1879 H   0  0  0  0  0  0  0  0  0  0  0  0
    1.7231    0.4099    1.2865 H   0  0  0  0  0  0  0  0  0  0  0  0
    3.2072   -0.4067    1.6984 H   0  0  0  0  0  0  0  0  0  0  0  0
    3.5766   -1.1097   -0.6146 H   0  0  0  0  0  0  0  0  0  0  0  0
    2.2220   -0.1807   -1.2196 H   0  0  0  0  0  0  0  0  0  0  0  0
    1.9545   -2.6747   -0.7155 H   0  0  0  0  0  0  0  0  0  0  0  0
   -0.1054    1.5869   -1.9602 H   0  0  0  0  0  0  0  0  0  0  0  0
   -0.7367    3.9102   -2.4652 H   0  0  0  0  0  0  0  0  0  0  0  0
   -4.3030    3.4626   -0.1028 H   0  0  0  0  0  0  0  0  0  0  0  0
   -3.6821    1.1529    0.4235 H   0  0  0  0  0  0  0  0  0  0  0  0
   -3.4272   -1.0758   -0.2853 H   0  0  0  0  0  0  0  0  0  0  0  0
   -3.1923   -5.4550    0.7783 H   0  0  0  0  0  0  0  0  0  0  0  0
   -0.7814   -6.0771    0.9836 H   0  0  0  0  0  0  0  0  0  0  0  0
    0.9242   -4.3215    0.5824 H   0  0  0  0  0  0  0  0  0  0  0  0
  1  2  1  0
  2  3  1  0
  3  4  1  0
  4  5  1  0
  5  6  1  0
  6  7  1  0
  7  8  2  0
  8  9  1  0
  9 10  1  0
 10 11  2  0
 11 12  1  0
 12 13  2  0
 13 14  1  0
 13 15  1  0
 15 16  2  0
  9 17  2  0
 17 18  1  0
 18 19  2  0
 19 20  1  0
 20 21  2  0
 21 22  1  0
 22 23  2  0
 23  7  1  0
 16 10  1  0
 23 18  1  0
  1 24  1  0
  1 25  1  0
  1 26  1  0
  3 27  1  0
  3 28  1  0
  4 29  1  0
  4 30  1  0
  5 31  1  0
  5 32  1  0
  6 33  1  0
 11 34  1  0
 12 35  1  0
 15 36  1  0
 16 37  1  0
 17 38  1  0
 20 39  1  0
 21 40  1  0
 22 41  1  0
M  END
>  <ScrubInfo>  (1) 
{"isomerGroup": 0, "isomerId": 0, "confId": 0, "nr_conformers:": 1, "nr_isomers:": 3}

$$$$
_i1
     RDKit          3D

 41 43  0  0  0  0  0  0  0  0999 V2000
   -0.6789   -0.1543    0.4556 N   0  0  0  0  0  0  0  0  0  0  0  0
   -1.8448   -0.4560   -0.2181 C   0  0  0  0  0  0  0  0  0  0  0  0
   -2.7887    0.6427   -0.4790 C   0  0  0  0  0  0  0  0  0  0  0  0
   -2.3834    1.7522   -1.2359 C   0  0  0  0  0  0  0  0  0  0  0  0
   -3.2694    2.8054   -1.4789 C   0  0  0  0  0  0  0  0  0  0  0  0
   -4.5631    2.7542   -0.9639 C   0  0  0  0  0  0  0  0  0  0  0  0
   -5.6531    4.0514   -1.2610 Cl  0  0  0  0  0  0  0  0  0  0  0  0
   -4.9793    1.6594   -0.2091 C   0  0  0  0  0  0  0  0  0  0  0  0
   -4.0935    0.6055    0.0332 C   0  0  0  0  0  0  0  0  0  0  0  0
   -2.1111   -1.7012   -0.6448 C   0  0  0  0  0  0  0  0  0  0  0  0
   -1.1275   -2.7531   -0.3794 C   0  0  0  0  0  0  0  0  0  0  0  0
   -1.4519   -3.9903   -0.8303 N   0  0  0  0  0  0  0  0  0  0  0  0
   -0.5515   -4.9736   -0.6010 C   0  0  0  0  0  0  0  0  0  0  0  0
    0.6560   -4.7849    0.0571 C   0  0  0  0  0  0  0  0  0  0  0  0
    0.9699   -3.5080    0.5144 C   0  0  0  0  0  0  0  0  0  0  0  0
    0.0644   -2.4712    0.2940 C   0  0  0  0  0  0  0  0  0  0  0  0
    0.3137   -1.0658    0.7525 C   0  0  0  0  0  0  0  0  0  0  0  0
    1.4202   -0.8318    1.3728 N   0  0  0  0  0  0  0  0  0  0  0  0
    1.7294    0.5059    1.8657 C   0  0  0  0  0  0  0  0  0  0  0  0
    2.3436    1.3719    0.7713 C   0  0  0  0  0  0  0  0  0  0  0  0
    3.6531    0.7980    0.2350 C   0  0  0  0  0  0  0  0  0  0  0  0
    4.2100    1.6624   -0.7592 O   0  0  0  0  0  0  0  0  0  0  0  0
    5.0250    2.6885   -0.2094 C   0  0  0  0  0  0  0  0  0  0  0  0
   -0.5709    0.8071    0.7478 H   0  0  0  0  0  0  0  0  0  0  0  0
   -1.3791    1.7963   -1.6536 H   0  0  0  0  0  0  0  0  0  0  0  0
   -2.9457    3.6566   -2.0721 H   0  0  0  0  0  0  0  0  0  0  0  0
   -5.9880    1.6190    0.1936 H   0  0  0  0  0  0  0  0  0  0  0  0
   -4.4272   -0.2414    0.6298 H   0  0  0  0  0  0  0  0  0  0  0  0
   -3.0063   -1.9754   -1.1892 H   0  0  0  0  0  0  0  0  0  0  0  0
   -0.8350   -5.9543   -0.9740 H   0  0  0  0  0  0  0  0  0  0  0  0
    1.3378   -5.6144    0.2104 H   0  0  0  0  0  0  0  0  0  0  0  0
    1.9060   -3.3244    1.0339 H   0  0  0  0  0  0  0  0  0  0  0  0
    2.4410    0.4060    2.6939 H   0  0  0  0  0  0  0  0  0  0  0  0
    0.8477    0.9958    2.2946 H   0  0  0  0  0  0  0  0  0  0  0  0
    2.5143    2.3768    1.1733 H   0  0  0  0  0  0  0  0  0  0  0  0
    1.6434    1.5026   -0.0626 H   0  0  0  0  0  0  0  0  0  0  0  0
    4.3771    0.6159    1.0380 H   0  0  0  0  0  0  0  0  0  0  0  0
    3.4625   -0.1612   -0.2577 H   0  0  0  0  0  0  0  0  0  0  0  0
    5.8732    2.2555    0.3297 H   0  0  0  0  0  0  0  0  0  0  0  0
    5.4123    3.2953   -1.0325 H   0  0  0  0  0  0  0  0  0  0  0  0
    4.4480    3.3368    0.4553 H   0  0  0  0  0  0  0  0  0  0  0  0
  1  2  1  0
  2  3  1  0
  3  4  2  0
  4  5  1  0
  5  6  2  0
  6  7  1  0
  6  8  1  0
  8  9  2  0
  2 10  2  0
 10 11  1  0
 11 12  2  0
 12 13  1  0
 13 14  2  0
 14 15  1  0
 15 16  2  0
 16 17  1  0
 17 18  2  3
 18 19  1  0
 19 20  1  0
 20 21  1  0
 21 22  1  0
 22 23  1  0
 17  1  1  0
  9  3  1  0
 16 11  1  0
  1 24  1  0
  4 25  1  0
  5 26  1  0
  8 27  1  0
  9 28  1  0
 10 29  1  0
 13 30  1  0
 14 31  1  0
 15 32  1  0
 19 33  1  0
 19 34  1  0
 20 35  1  0
 20 36  1  0
 21 37  1  0
 21 38  1  0
 23 39  1  0
 23 40  1  0
 23 41  1  0
M  END
>  <ScrubInfo>  (2) 
{"isomerGroup": 0, "isomerId": 1, "confId": 0, "nr_conformers:": 1, "nr_isomers:": 3}

$$$$
_i2
     RDKit          3D

 41 43  0  0  0  0  0  0  0  0999 V2000
   -3.3966   -3.0779   -0.3958 N   0  0  0  0  0  0  0  0  0  0  0  0
   -3.1417   -4.4298   -0.3996 C   0  0  0  0  0  0  0  0  0  0  0  0
   -1.8898   -4.9144   -0.3888 C   0  0  0  0  0  0  0  0  0  0  0  0
   -0.7807   -3.9734   -0.3619 C   0  0  0  0  0  0  0  0  0  0  0  0
   -1.0105   -2.6420   -0.3703 C   0  0  0  0  0  0  0  0  0  0  0  0
    0.1353   -1.6860   -0.3020 C   0  0  0  0  0  0  0  0  0  0  0  0
    1.3557   -2.0742   -0.1425 N   0  0  0  0  0  0  0  0  0  0  0  0
    2.4023   -1.0474   -0.0825 C   0  0  0  0  0  0  0  0  0  0  0  0
    2.6039   -0.6025    1.3658 C   0  0  0  0  0  0  0  0  0  0  0  0
    3.7074    0.4400    1.4929 C   0  0  0  0  0  0  0  0  0  0  0  0
    3.2955    1.6520    0.8607 O   0  0  0  0  0  0  0  0  0  0  0  0
    4.3050    2.6495    0.9315 C   0  0  0  0  0  0  0  0  0  0  0  0
   -0.1677   -0.3531   -0.4042 N   0  0  0  0  0  0  0  0  0  0  0  0
   -1.3894    0.0652   -0.4723 C   0  0  0  0  0  0  0  0  0  0  0  0
   -1.6199    1.5395   -0.5713 C   0  0  0  0  0  0  0  0  0  0  0  0
   -0.6733    2.4014    0.0052 C   0  0  0  0  0  0  0  0  0  0  0  0
   -0.8384    3.7871   -0.0681 C   0  0  0  0  0  0  0  0  0  0  0  0
   -1.9449    4.3161   -0.7271 C   0  0  0  0  0  0  0  0  0  0  0  0
   -2.1517    6.0211   -0.8207 Cl  0  0  0  0  0  0  0  0  0  0  0  0
   -2.8828    3.4717   -1.3203 C   0  0  0  0  0  0  0  0  0  0  0  0
   -2.7195    2.0837   -1.2484 C   0  0  0  0  0  0  0  0  0  0  0  0
   -2.5875   -0.8075   -0.4380 C   0  0  0  0  0  0  0  0  0  0  0  0
   -2.3827   -2.1292   -0.4060 C   0  0  0  0  0  0  0  0  0  0  0  0
   -4.3601   -2.7675   -0.4248 H   0  0  0  0  0  0  0  0  0  0  0  0
   -4.0173   -5.0704   -0.4138 H   0  0  0  0  0  0  0  0  0  0  0  0
   -1.6813   -5.9776   -0.3915 H   0  0  0  0  0  0  0  0  0  0  0  0
    0.2259   -4.3785   -0.3232 H   0  0  0  0  0  0  0  0  0  0  0  0
    2.2031   -0.1984   -0.7470 H   0  0  0  0  0  0  0  0  0  0  0  0
    3.3292   -1.5003   -0.4543 H   0  0  0  0  0  0  0  0  0  0  0  0
    1.6665   -0.1890    1.7566 H   0  0  0  0  0  0  0  0  0  0  0  0
    2.8552   -1.4741    1.9818 H   0  0  0  0  0  0  0  0  0  0  0  0
    4.6336    0.0752    1.0337 H   0  0  0  0  0  0  0  0  0  0  0  0
    3.8964    0.6390    2.5540 H   0  0  0  0  0  0  0  0  0  0  0  0
    5.2094    2.3166    0.4134 H   0  0  0  0  0  0  0  0  0  0  0  0
    4.5341    2.8899    1.9741 H   0  0  0  0  0  0  0  0  0  0  0  0
    3.9324    3.5515    0.4388 H   0  0  0  0  0  0  0  0  0  0  0  0
    0.2036    1.9984    0.5121 H   0  0  0  0  0  0  0  0  0  0  0  0
   -0.0966    4.4399    0.3844 H   0  0  0  0  0  0  0  0  0  0  0  0
   -3.7364    3.8877   -1.8497 H   0  0  0  0  0  0  0  0  0  0  0  0
   -3.4449    1.4522   -1.7526 H   0  0  0  0  0  0  0  0  0  0  0  0
   -3.5807   -0.3843   -0.4282 H   0  0  0  0  0  0  0  0  0  0  0  0
  1  2  1  0
  2  3  2  0
  3  4  1  0
  4  5  2  0
  5  6  1  0
  6  7  2  3
  7  8  1  0
  8  9  1  0
  9 10  1  0
 10 11  1  0
 11 12  1  0
  6 13  1  0
 13 14  2  0
 14 15  1  0
 15 16  2  0
 16 17  1  0
 17 18  2  0
 18 19  1  0
 18 20  1  0
 20 21  2  0
 14 22  1  0
 22 23  2  0
 23  1  1  0
 23  5  1  0
 21 15  1  0
  1 24  1  0
  2 25  1  0
  3 26  1  0
  4 27  1  0
  8 28  1  0
  8 29  1  0
  9 30  1  0
  9 31  1  0
 10 32  1  0
 10 33  1  0
 12 34  1  0
 12 35  1  0
 12 36  1  0
 16 37  1  0
 17 38  1  0
 20 39  1  0
 21 40  1  0
 22 41  1  0
M  END
>  <ScrubInfo>  (3) 
{"isomerGroup": 0, "isomerId": 2, "confId": 0, "nr_conformers:": 1, "nr_isomers:": 3}

$$$$
