REMARK SMILES COCCCNc1nc(-c2ccc(Cl)cc2)cc2ncccc12
REMARK SMILES IDX 5 1 4 2 3 3 2 4 1 5 6 6 7 8 8 9 23 10 9 11 22 12 18 13 17 14
REMARK SMILES IDX 21 15 19 16 20 17 10 18 11 19 16 20 12 21 15 22 13 23 14 24
REMARK H PARENT 6 7
ROOT
ATOM      1  C   UNL     1       2.578  -0.743  -0.347  1.00  0.00     0.117 C 
ENDROOT
BRANCH   1   2
ATOM      2  C   UNL     1       2.708   0.143   0.890  1.00  0.00     0.050 C 
BRANCH   2   3
ATOM      3  C   UNL     1       3.493   1.410   0.567  1.00  0.00     0.161 C 
BRANCH   3   4
ATOM      4  O   UNL     1       3.753   2.191   1.734  1.00  0.00    -0.385 OA
ATOM      5  C   UNL     1       2.620   2.923   2.183  1.00  0.00     0.194 C 
ENDBRANCH   3   4
ENDBRANCH   2   3
ENDBRANCH   1   2
BRANCH   1   6
ATOM      6  N   UNL     1       1.739  -1.912  -0.079  1.00  0.00    -0.369 N 
ATOM      7  H   UNL     1       1.954  -2.675  -0.716  1.00  0.00     0.162 HD
BRANCH   6   8
ATOM      8  C   UNL     1       0.343  -1.695  -0.125  1.00  0.00     0.136 A 
ATOM      9  N   UNL     1      -0.114  -0.458  -0.407  1.00  0.00    -0.230 NA
ATOM     10  C   UNL     1      -0.535  -2.768   0.141  1.00  0.00     0.043 A 
ATOM     11  C   UNL     1      -1.447  -0.232  -0.445  1.00  0.00     0.075 A 
ATOM     12  C   UNL     1      -0.131  -4.078   0.483  1.00  0.00     0.016 A 
ATOM     13  C   UNL     1      -1.917  -2.525   0.073  1.00  0.00     0.076 A 
ATOM     14  C   UNL     1      -2.359  -1.252  -0.224  1.00  0.00     0.058 A 
ATOM     15  C   UNL     1      -1.076  -5.069   0.717  1.00  0.00     0.021 A 
ATOM     16  N   UNL     1      -2.837  -3.482   0.293  1.00  0.00    -0.256 NA
ATOM     17  C   UNL     1      -2.407  -4.724   0.607  1.00  0.00     0.112 A 
BRANCH  11  18
ATOM     18  C   UNL     1      -1.845   1.161  -0.741  1.00  0.00     0.000 A 
ATOM     19  C   UNL     1      -1.032   1.983  -1.547  1.00  0.00     0.012 A 
ATOM     20  C   UNL     1      -3.027   1.728  -0.228  1.00  0.00     0.012 A 
ATOM     21  C   UNL     1      -1.386   3.305  -1.838  1.00  0.00     0.021 A 
ATOM     22  C   UNL     1      -3.386   3.051  -0.516  1.00  0.00     0.021 A 
ATOM     23  C   UNL     1      -2.563   3.833  -1.321  1.00  0.00     0.041 A 
ATOM     24  Cl  UNL     1      -3.002   5.458  -1.674  1.00  0.00    -0.084 Cl
ENDBRANCH  11  18
ENDBRANCH   6   8
ENDBRANCH   1   6
TORSDOF 6
