REMARK SMILES Cc1ccc(O)c(Nc2nc(NCCOC(C)C)nc3c2cnn3C)c1
REMARK SMILES IDX 12 1 11 3 9 4 10 5 21 6 20 7 22 8 19 9 24 10 23 11 25 12
REMARK SMILES IDX 8 13 7 15 2 16 3 17 26 18 4 19 5 20 1 21 6 22 13 24 14 25
REMARK SMILES IDX 15 26 16 27 17 28 18 29
REMARK H PARENT 12 2 8 14 6 23
ROOT
ATOM      1  N   UNL     1       1.169  -1.173   1.610  1.00  0.00    -0.352 N 
ATOM      2  H   UNL     1       0.957  -0.179   1.683  1.00  0.00     0.163 HD
ENDROOT
BRANCH   1   3
ATOM      3  C   UNL     1       0.492  -1.631   0.489  1.00  0.00     0.226 A 
ATOM      4  C   UNL     1      -1.300  -1.182  -0.973  1.00  0.00     0.147 A 
ATOM      5  N   UNL     1      -0.544  -0.856   0.107  1.00  0.00    -0.195 NA
ATOM      6  C   UNL     1      -0.956  -2.358  -1.652  1.00  0.00     0.082 A 
ATOM      7  C   UNL     1       0.121  -3.076  -1.169  1.00  0.00     0.165 A 
ATOM      8  C   UNL     1      -1.397  -3.101  -2.767  1.00  0.00     0.149 A 
ATOM      9  N   UNL     1       0.881  -2.762  -0.112  1.00  0.00    -0.193 NA
ATOM     10  N   UNL     1       0.248  -4.165  -1.987  1.00  0.00    -0.250 N 
ATOM     11  N   UNL     1      -0.669  -4.202  -2.983  1.00  0.00    -0.179 NA
ATOM     12  C   UNL     1       1.224  -5.220  -1.883  1.00  0.00     0.176 C 
BRANCH   4  13
ATOM     13  N   UNL     1      -2.367  -0.377  -1.393  1.00  0.00    -0.336 N 
ATOM     14  H   UNL     1      -2.806  -0.735  -2.231  1.00  0.00     0.168 HD
BRANCH  13  15
ATOM     15  C   UNL     1      -2.962   0.824  -0.947  1.00  0.00     0.082 A 
ATOM     16  C   UNL     1      -4.587   2.604  -1.502  1.00  0.00    -0.049 A 
ATOM     17  C   UNL     1      -4.299   3.246  -0.299  1.00  0.00     0.007 A 
ATOM     18  C   UNL     1      -3.927   1.401  -1.805  1.00  0.00     0.033 A 
ATOM     19  C   UNL     1      -3.352   2.705   0.565  1.00  0.00     0.048 A 
ATOM     20  C   UNL     1      -2.690   1.515   0.242  1.00  0.00     0.139 A 
ATOM     21  C   UNL     1      -5.626   3.157  -2.431  1.00  0.00     0.044 C 
BRANCH  20  22
ATOM     22  O   UNL     1      -1.800   1.099   1.190  1.00  0.00    -0.506 OA
ATOM     23  H   UNL     1      -1.357   0.305   0.825  1.00  0.00     0.293 HD
ENDBRANCH  20  22
ENDBRANCH  13  15
ENDBRANCH   4  13
ENDBRANCH   1   3
BRANCH   1  24
ATOM     24  C   UNL     1       2.601  -1.447   1.653  1.00  0.00     0.144 C 
BRANCH  24  25
ATOM     25  C   UNL     1       3.384  -0.561   0.671  1.00  0.00     0.181 C 
BRANCH  25  26
ATOM     26  O   UNL     1       3.085   0.826   0.864  1.00  0.00    -0.377 OA
BRANCH  26  27
ATOM     27  C   UNL     1       3.822   1.456   1.915  1.00  0.00     0.112 C 
ATOM     28  C   UNL     1       5.167   1.942   1.384  1.00  0.00     0.038 C 
ATOM     29  C   UNL     1       2.987   2.633   2.405  1.00  0.00     0.038 C 
ENDBRANCH  26  27
ENDBRANCH  25  26
ENDBRANCH  24  25
ENDBRANCH   1  24
TORSDOF 8
