_i0
     RDKit          3D

 50 52  0  0  0  0  0  0  0  0999 V2000
   -5.6264    3.1571   -2.4307 C   0  0  0  0  0  0  0  0  0  0  0  0
   -4.5867    2.6044   -1.5017 C   0  0  0  0  0  0  0  0  0  0  0  0
   -4.2993    3.2462   -0.2988 C   0  0  0  0  0  0  0  0  0  0  0  0
   -3.3517    2.7046    0.5648 C   0  0  0  0  0  0  0  0  0  0  0  0
   -2.6904    1.5151    0.2424 C   0  0  0  0  0  0  0  0  0  0  0  0
   -1.7997    1.0988    1.1896 O   0  0  0  0  0  0  0  0  0  0  0  0
   -2.9624    0.8235   -0.9466 C   0  0  0  0  0  0  0  0  0  0  0  0
   -2.3671   -0.3767   -1.3930 N   0  0  0  0  0  0  0  0  0  0  0  0
   -1.3005   -1.1822   -0.9731 C   0  0  0  0  0  0  0  0  0  0  0  0
   -0.5442   -0.8558    0.1071 N   0  0  0  0  0  0  0  0  0  0  0  0
    0.4918   -1.6307    0.4891 C   0  0  0  0  0  0  0  0  0  0  0  0
    1.1688   -1.1729    1.6103 N   0  0  0  0  0  0  0  0  0  0  0  0
    2.6012   -1.4472    1.6534 C   0  0  0  0  0  0  0  0  0  0  0  0
    3.3842   -0.5610    0.6708 C   0  0  0  0  0  0  0  0  0  0  0  0
    3.0852    0.8264    0.8644 O   0  0  0  0  0  0  0  0  0  0  0  0
    3.8220    1.4565    1.9147 C   0  0  0  0  0  0  0  0  0  0  0  0
    5.1668    1.9421    1.3844 C   0  0  0  0  0  0  0  0  0  0  0  0
    2.9866    2.6332    2.4045 C   0  0  0  0  0  0  0  0  0  0  0  0
    0.8815   -2.7616   -0.1116 N   0  0  0  0  0  0  0  0  0  0  0  0
    0.1209   -3.0757   -1.1691 C   0  0  0  0  0  0  0  0  0  0  0  0
   -0.9555   -2.3578   -1.6521 C   0  0  0  0  0  0  0  0  0  0  0  0
   -1.3972   -3.1009   -2.7673 C   0  0  0  0  0  0  0  0  0  0  0  0
   -0.6689   -4.2017   -2.9826 N   0  0  0  0  0  0  0  0  0  0  0  0
    0.2476   -4.1649   -1.9873 N   0  0  0  0  0  0  0  0  0  0  0  0
    1.2240   -5.2198   -1.8826 C   0  0  0  0  0  0  0  0  0  0  0  0
   -3.9271    1.4012   -1.8047 C   0  0  0  0  0  0  0  0  0  0  0  0
   -5.3730    2.9383   -3.4733 H   0  0  0  0  0  0  0  0  0  0  0  0
   -5.6979    4.2458   -2.3362 H   0  0  0  0  0  0  0  0  0  0  0  0
   -6.6027    2.7182   -2.2030 H   0  0  0  0  0  0  0  0  0  0  0  0
   -4.8051    4.1683   -0.0243 H   0  0  0  0  0  0  0  0  0  0  0  0
   -3.1226    3.2059    1.5018 H   0  0  0  0  0  0  0  0  0  0  0  0
   -1.3575    0.3053    0.8246 H   0  0  0  0  0  0  0  0  0  0  0  0
   -2.8063   -0.7351   -2.2308 H   0  0  0  0  0  0  0  0  0  0  0  0
    0.9572   -0.1788    1.6832 H   0  0  0  0  0  0  0  0  0  0  0  0
    2.8228   -2.5066    1.4788 H   0  0  0  0  0  0  0  0  0  0  0  0
    2.9328   -1.2312    2.6746 H   0  0  0  0  0  0  0  0  0  0  0  0
    3.0984   -0.8032   -0.3582 H   0  0  0  0  0  0  0  0  0  0  0  0
    4.4599   -0.7460    0.7590 H   0  0  0  0  0  0  0  0  0  0  0  0
    3.9768    0.7656    2.7506 H   0  0  0  0  0  0  0  0  0  0  0  0
    5.7840    1.1030    1.0489 H   0  0  0  0  0  0  0  0  0  0  0  0
    5.7221    2.4874    2.1539 H   0  0  0  0  0  0  0  0  0  0  0  0
    5.0316    2.5981    0.5172 H   0  0  0  0  0  0  0  0  0  0  0  0
    3.4889    3.1685    3.2160 H   0  0  0  0  0  0  0  0  0  0  0  0
    2.7828    3.3382    1.5908 H   0  0  0  0  0  0  0  0  0  0  0  0
    2.0139    2.2832    2.7675 H   0  0  0  0  0  0  0  0  0  0  0  0
   -2.2211   -2.8893   -3.4360 H   0  0  0  0  0  0  0  0  0  0  0  0
    0.6943   -6.1659   -1.7451 H   0  0  0  0  0  0  0  0  0  0  0  0
    1.8087   -5.2397   -2.8057 H   0  0  0  0  0  0  0  0  0  0  0  0
    1.8831   -5.0376   -1.0309 H   0  0  0  0  0  0  0  0  0  0  0  0
   -4.1747    0.9073   -2.7426 H   0  0  0  0  0  0  0  0  0  0  0  0
  1  2  1  0
  2  3  2  0
  3  4  1  0
  4  5  2  0
  5  6  1  0
  5  7  1  0
  7  8  1  0
  8  9  1  0
  9 10  2  0
 10 11  1  0
 11 12  1  0
 12 13  1  0
 13 14  1  0
 14 15  1  0
 15 16  1  0
 16 17  1  0
 16 18  1  0
 11 19  2  0
 19 20  1  0
 20 21  2  0
 21 22  1  0
 22 23  2  0
 23 24  1  0
 24 25  1  0
  7 26  2  0
 26  2  1  0
 21  9  1  0
 24 20  1  0
  1 27  1  0
  1 28  1  0
  1 29  1  0
  3 30  1  0
  4 31  1  0
  6 32  1  0
  8 33  1  0
 12 34  1  0
 13 35  1  0
 13 36  1  0
 14 37  1  0
 14 38  1  0
 16 39  1  0
 17 40  1  0
 17 41  1  0
 17 42  1  0
 18 43  1  0
 18 44  1  0
 18 45  1  0
 22 46  1  0
 25 47  1  0
 25 48  1  0
 25 49  1  0
 26 50  1  0
M  END
>  <ScrubInfo>  (1) 
{"isomerGroup": 0, "isomerId": 0, "confId": 0, "nr_conformers:": 1, "nr_isomers:": 9}

$$$$
_i1
     RDKit          3D

 50 52  0  0  0  0  0  0  0  0999 V2000
   -0.1812    0.7890   -0.1039 N   0  0  0  0  0  0  0  0  0  0  0  0
    0.8570   -0.0446   -0.4369 C   0  0  0  0  0  0  0  0  0  0  0  0
    2.0948    0.5307   -0.4705 N   0  0  0  0  0  0  0  0  0  0  0  0
    2.6194    1.3022    0.6561 C   0  0  0  0  0  0  0  0  0  0  0  0
    4.0853    1.6654    0.3935 C   0  0  0  0  0  0  0  0  0  0  0  0
    4.8417    0.4549    0.2821 O   0  0  0  0  0  0  0  0  0  0  0  0
    6.2100    0.6644   -0.0804 C   0  0  0  0  0  0  0  0  0  0  0  0
    6.7442   -0.6709   -0.5862 C   0  0  0  0  0  0  0  0  0  0  0  0
    7.0244    1.1398    1.1183 C   0  0  0  0  0  0  0  0  0  0  0  0
    0.7142   -1.3109   -0.7317 N   0  0  0  0  0  0  0  0  0  0  0  0
   -0.5880   -1.7028   -0.6372 C   0  0  0  0  0  0  0  0  0  0  0  0
   -1.7001   -0.9374   -0.3189 C   0  0  0  0  0  0  0  0  0  0  0  0
   -2.7664   -1.8544   -0.3291 C   0  0  0  0  0  0  0  0  0  0  0  0
   -2.3796   -3.0961   -0.6492 N   0  0  0  0  0  0  0  0  0  0  0  0
   -1.0458   -2.9749   -0.8350 N   0  0  0  0  0  0  0  0  0  0  0  0
   -0.2718   -4.1389   -1.1856 C   0  0  0  0  0  0  0  0  0  0  0  0
   -1.5206    0.4776   -0.0576 C   0  0  0  0  0  0  0  0  0  0  0  0
   -2.4197    1.3849    0.1839 N   0  0  0  0  0  0  0  0  0  0  0  0
   -3.7902    1.0891    0.1612 C   0  0  0  0  0  0  0  0  0  0  0  0
   -4.4993    1.0379   -1.0421 C   0  0  0  0  0  0  0  0  0  0  0  0
   -5.8726    0.7487   -1.0494 C   0  0  0  0  0  0  0  0  0  0  0  0
   -6.6300    0.7076   -2.3439 C   0  0  0  0  0  0  0  0  0  0  0  0
   -6.5396    0.5552    0.1694 C   0  0  0  0  0  0  0  0  0  0  0  0
   -5.8463    0.6358    1.3779 C   0  0  0  0  0  0  0  0  0  0  0  0
   -4.4860    0.9107    1.3626 C   0  0  0  0  0  0  0  0  0  0  0  0
   -3.8238    1.0152    2.5559 O   0  0  0  0  0  0  0  0  0  0  0  0
    0.0169    1.7752   -0.0834 H   0  0  0  0  0  0  0  0  0  0  0  0
    2.7804   -0.1861   -0.7227 H   0  0  0  0  0  0  0  0  0  0  0  0
    2.5487    0.6960    1.5665 H   0  0  0  0  0  0  0  0  0  0  0  0
    2.0373    2.2186    0.7958 H   0  0  0  0  0  0  0  0  0  0  0  0
    4.1697    2.2395   -0.5365 H   0  0  0  0  0  0  0  0  0  0  0  0
    4.4627    2.2661    1.2264 H   0  0  0  0  0  0  0  0  0  0  0  0
    6.2722    1.3956   -0.8954 H   0  0  0  0  0  0  0  0  0  0  0  0
    6.1500   -1.0206   -1.4376 H   0  0  0  0  0  0  0  0  0  0  0  0
    6.6692   -1.4433    0.1875 H   0  0  0  0  0  0  0  0  0  0  0  0
    7.7889   -0.5893   -0.9014 H   0  0  0  0  0  0  0  0  0  0  0  0
    6.7031    2.1337    1.4444 H   0  0  0  0  0  0  0  0  0  0  0  0
    8.0904    1.1955    0.8759 H   0  0  0  0  0  0  0  0  0  0  0  0
    6.8916    0.4676    1.9731 H   0  0  0  0  0  0  0  0  0  0  0  0
   -3.8141   -1.6924   -0.1160 H   0  0  0  0  0  0  0  0  0  0  0  0
   -0.2404   -4.8020   -0.3176 H   0  0  0  0  0  0  0  0  0  0  0  0
   -0.7569   -4.6371   -2.0291 H   0  0  0  0  0  0  0  0  0  0  0  0
    0.7411   -3.8449   -1.4692 H   0  0  0  0  0  0  0  0  0  0  0  0
   -3.9733    1.2160   -1.9768 H   0  0  0  0  0  0  0  0  0  0  0  0
   -5.9899    0.3542   -3.1591 H   0  0  0  0  0  0  0  0  0  0  0  0
   -7.0011    1.7067   -2.5919 H   0  0  0  0  0  0  0  0  0  0  0  0
   -7.4799    0.0202   -2.2776 H   0  0  0  0  0  0  0  0  0  0  0  0
   -7.6077    0.3482    0.1844 H   0  0  0  0  0  0  0  0  0  0  0  0
   -6.3639    0.4960    2.3220 H   0  0  0  0  0  0  0  0  0  0  0  0
   -2.9250    1.3086    2.3101 H   0  0  0  0  0  0  0  0  0  0  0  0
  1  2  1  0
  2  3  1  0
  3  4  1  0
  4  5  1  0
  5  6  1  0
  6  7  1  0
  7  8  1  0
  7  9  1  0
  2 10  2  0
 10 11  1  0
 11 12  2  0
 12 13  1  0
 13 14  2  0
 14 15  1  0
 15 16  1  0
 12 17  1  0
 17 18  2  3
 18 19  1  0
 19 20  2  0
 20 21  1  0
 21 22  1  0
 21 23  2  0
 23 24  1  0
 24 25  2  0
 25 26  1  0
 17  1  1  0
 25 19  1  0
 15 11  1  0
  1 27  1  0
  3 28  1  0
  4 29  1  0
  4 30  1  0
  5 31  1  0
  5 32  1  0
  7 33  1  0
  8 34  1  0
  8 35  1  0
  8 36  1  0
  9 37  1  0
  9 38  1  0
  9 39  1  0
 13 40  1  0
 16 41  1  0
 16 42  1  0
 16 43  1  0
 20 44  1  0
 22 45  1  0
 22 46  1  0
 22 47  1  0
 23 48  1  0
 24 49  1  0
 26 50  1  0
M  END
>  <ScrubInfo>  (2) 
{"isomerGroup": 0, "isomerId": 1, "confId": 0, "nr_conformers:": 1, "nr_isomers:": 9}

$$$$
_i2
     RDKit          3D

 50 52  0  0  0  0  0  0  0  0999 V2000
   -0.2682    1.1355   -0.3129 N   0  0  0  0  0  0  0  0  0  0  0  0
   -1.5107    0.5606   -0.4906 C   0  0  0  0  0  0  0  0  0  0  0  0
   -2.6073    1.3614   -0.7605 N   0  0  0  0  0  0  0  0  0  0  0  0
   -3.9447    1.0990   -0.3882 C   0  0  0  0  0  0  0  0  0  0  0  0
   -4.9395    1.2264   -1.3681 C   0  0  0  0  0  0  0  0  0  0  0  0
   -6.2950    1.0390   -1.0579 C   0  0  0  0  0  0  0  0  0  0  0  0
   -7.3373    1.1146   -2.1345 C   0  0  0  0  0  0  0  0  0  0  0  0
   -6.6561    0.7259    0.2570 C   0  0  0  0  0  0  0  0  0  0  0  0
   -5.6838    0.6457    1.2531 C   0  0  0  0  0  0  0  0  0  0  0  0
   -4.3455    0.8536    0.9332 C   0  0  0  0  0  0  0  0  0  0  0  0
   -3.4579    0.8200    1.9725 O   0  0  0  0  0  0  0  0  0  0  0  0
   -1.5362   -0.7772   -0.3931 C   0  0  0  0  0  0  0  0  0  0  0  0
   -2.5135   -1.8723   -0.4775 C   0  0  0  0  0  0  0  0  0  0  0  0
   -1.9848   -3.0524   -0.2664 N   0  0  0  0  0  0  0  0  0  0  0  0
   -0.6152   -2.8210   -0.0779 N   0  0  0  0  0  0  0  0  0  0  0  0
    0.2009   -3.8725    0.4784 C   0  0  0  0  0  0  0  0  0  0  0  0
   -0.2652   -1.4817   -0.0992 C   0  0  0  0  0  0  0  0  0  0  0  0
    0.8811   -0.9207    0.0900 N   0  0  0  0  0  0  0  0  0  0  0  0
    0.8854    0.4476   -0.0379 C   0  0  0  0  0  0  0  0  0  0  0  0
    1.9816    1.1199    0.0929 N   0  0  0  0  0  0  0  0  0  0  0  0
    3.1932    0.3484    0.3914 C   0  0  0  0  0  0  0  0  0  0  0  0
    4.3788    1.3097    0.5150 C   0  0  0  0  0  0  0  0  0  0  0  0
    5.5818    0.6146    0.8525 O   0  0  0  0  0  0  0  0  0  0  0  0
    6.2766    0.0679   -0.2713 C   0  0  0  0  0  0  0  0  0  0  0  0
    7.1963    1.1244   -0.8753 C   0  0  0  0  0  0  0  0  0  0  0  0
    7.0907   -1.1167    0.2355 C   0  0  0  0  0  0  0  0  0  0  0  0
   -0.1547    2.1273   -0.4527 H   0  0  0  0  0  0  0  0  0  0  0  0
   -2.4105    2.3579   -0.7205 H   0  0  0  0  0  0  0  0  0  0  0  0
   -4.6507    1.4532   -2.3930 H   0  0  0  0  0  0  0  0  0  0  0  0
   -8.2986    1.4434   -1.7258 H   0  0  0  0  0  0  0  0  0  0  0  0
   -7.0492    1.8361   -2.9063 H   0  0  0  0  0  0  0  0  0  0  0  0
   -7.4676    0.1321   -2.5984 H   0  0  0  0  0  0  0  0  0  0  0  0
   -7.6988    0.5578    0.5180 H   0  0  0  0  0  0  0  0  0  0  0  0
   -5.9700    0.4337    2.2797 H   0  0  0  0  0  0  0  0  0  0  0  0
   -2.5966    1.1162    1.6361 H   0  0  0  0  0  0  0  0  0  0  0  0
   -3.5735   -1.6829   -0.6842 H   0  0  0  0  0  0  0  0  0  0  0  0
    1.2491   -3.7482    0.1884 H   0  0  0  0  0  0  0  0  0  0  0  0
    0.1384   -3.8651    1.5710 H   0  0  0  0  0  0  0  0  0  0  0  0
   -0.1303   -4.8522    0.1190 H   0  0  0  0  0  0  0  0  0  0  0  0
    3.0891   -0.2037    1.3340 H   0  0  0  0  0  0  0  0  0  0  0  0
    3.3941   -0.3817   -0.4011 H   0  0  0  0  0  0  0  0  0  0  0  0
    4.5057    1.9035   -0.3973 H   0  0  0  0  0  0  0  0  0  0  0  0
    4.1814    2.0177    1.3279 H   0  0  0  0  0  0  0  0  0  0  0  0
    5.5711   -0.2912   -1.0289 H   0  0  0  0  0  0  0  0  0  0  0  0
    7.7884    0.7103   -1.6973 H   0  0  0  0  0  0  0  0  0  0  0  0
    7.8788    1.5274   -0.1188 H   0  0  0  0  0  0  0  0  0  0  0  0
    6.6223    1.9721   -1.2623 H   0  0  0  0  0  0  0  0  0  0  0  0
    7.6539   -1.5893   -0.5749 H   0  0  0  0  0  0  0  0  0  0  0  0
    7.7925   -0.8073    1.0181 H   0  0  0  0  0  0  0  0  0  0  0  0
    6.4304   -1.8668    0.6843 H   0  0  0  0  0  0  0  0  0  0  0  0
  1  2  1  0
  2  3  1  0
  3  4  1  0
  4  5  2  0
  5  6  1  0
  6  7  1  0
  6  8  2  0
  8  9  1  0
  9 10  2  0
 10 11  1  0
  2 12  2  0
 12 13  1  0
 13 14  2  0
 14 15  1  0
 15 16  1  0
 15 17  1  0
 17 18  2  0
 18 19  1  0
 19 20  2  3
 20 21  1  0
 21 22  1  0
 22 23  1  0
 23 24  1  0
 24 25  1  0
 24 26  1  0
 19  1  1  0
 10  4  1  0
 17 12  1  0
  1 27  1  0
  3 28  1  0
  5 29  1  0
  7 30  1  0
  7 31  1  0
  7 32  1  0
  8 33  1  0
  9 34  1  0
 11 35  1  0
 13 36  1  0
 16 37  1  0
 16 38  1  0
 16 39  1  0
 21 40  1  0
 21 41  1  0
 22 42  1  0
 22 43  1  0
 24 44  1  0
 25 45  1  0
 25 46  1  0
 25 47  1  0
 26 48  1  0
 26 49  1  0
 26 50  1  0
M  END
>  <ScrubInfo>  (3) 
{"isomerGroup": 0, "isomerId": 2, "confId": 0, "nr_conformers:": 1, "nr_isomers:": 9}

$$$$
_i3
     RDKit          3D

 50 52  0  0  0  0  0  0  0  0999 V2000
   -0.9337    1.5891   -0.1175 N   0  0  0  0  0  0  0  0  0  0  0  0
   -1.1242    0.2826    0.3058 C   0  0  0  0  0  0  0  0  0  0  0  0
   -2.1910   -0.2005    0.8335 N   0  0  0  0  0  0  0  0  0  0  0  0
   -3.3734    0.6212    1.0624 C   0  0  0  0  0  0  0  0  0  0  0  0
   -4.2348    0.7704   -0.1996 C   0  0  0  0  0  0  0  0  0  0  0  0
   -4.5696   -0.4378   -0.8790 O   0  0  0  0  0  0  0  0  0  0  0  0
   -5.2180   -1.4506   -0.1085 C   0  0  0  0  0  0  0  0  0  0  0  0
   -5.3163   -2.6832   -1.0026 C   0  0  0  0  0  0  0  0  0  0  0  0
   -6.6100   -1.0146    0.3383 C   0  0  0  0  0  0  0  0  0  0  0  0
   -0.1171   -0.6637    0.1862 N   0  0  0  0  0  0  0  0  0  0  0  0
    1.0386   -0.3237   -0.3146 C   0  0  0  0  0  0  0  0  0  0  0  0
    2.0580   -1.2292   -0.4840 N   0  0  0  0  0  0  0  0  0  0  0  0
    3.3873   -1.0238   -0.0247 C   0  0  0  0  0  0  0  0  0  0  0  0
    4.4244   -1.6361   -0.7454 C   0  0  0  0  0  0  0  0  0  0  0  0
    5.7599   -1.5314   -0.3316 C   0  0  0  0  0  0  0  0  0  0  0  0
    6.8510   -2.1984   -1.1161 C   0  0  0  0  0  0  0  0  0  0  0  0
    6.0528   -0.8482    0.8531 C   0  0  0  0  0  0  0  0  0  0  0  0
    5.0305   -0.2706    1.6073 C   0  0  0  0  0  0  0  0  0  0  0  0
    3.7077   -0.3720    1.1759 C   0  0  0  0  0  0  0  0  0  0  0  0
    2.7068    0.1519    1.9464 O   0  0  0  0  0  0  0  0  0  0  0  0
    1.2641    1.0192   -0.7983 C   0  0  0  0  0  0  0  0  0  0  0  0
    2.2864    1.7422   -1.4312 C   0  0  0  0  0  0  0  0  0  0  0  0
    1.9382    3.0172   -1.6724 N   0  0  0  0  0  0  0  0  0  0  0  0
    0.6731    3.1010   -1.1926 N   0  0  0  0  0  0  0  0  0  0  0  0
   -0.0321    4.3523   -1.2990 C   0  0  0  0  0  0  0  0  0  0  0  0
    0.2460    1.9225   -0.6691 C   0  0  0  0  0  0  0  0  0  0  0  0
   -1.7067    2.2271   -0.0282 H   0  0  0  0  0  0  0  0  0  0  0  0
   -3.9607    0.1382    1.8510 H   0  0  0  0  0  0  0  0  0  0  0  0
   -3.1115    1.6083    1.4612 H   0  0  0  0  0  0  0  0  0  0  0  0
   -5.1533    1.3177    0.0388 H   0  0  0  0  0  0  0  0  0  0  0  0
   -3.6985    1.3857   -0.9300 H   0  0  0  0  0  0  0  0  0  0  0  0
   -4.6078   -1.7168    0.7604 H   0  0  0  0  0  0  0  0  0  0  0  0
   -5.8945   -2.4672   -1.9080 H   0  0  0  0  0  0  0  0  0  0  0  0
   -4.3192   -2.9946   -1.3329 H   0  0  0  0  0  0  0  0  0  0  0  0
   -5.7857   -3.5209   -0.4776 H   0  0  0  0  0  0  0  0  0  0  0  0
   -6.5524   -0.1931    1.0592 H   0  0  0  0  0  0  0  0  0  0  0  0
   -7.1989   -0.6526   -0.5114 H   0  0  0  0  0  0  0  0  0  0  0  0
   -7.1492   -1.8389    0.8158 H   0  0  0  0  0  0  0  0  0  0  0  0
    1.7383   -2.1138   -0.0939 H   0  0  0  0  0  0  0  0  0  0  0  0
    4.1843   -2.1864   -1.6538 H   0  0  0  0  0  0  0  0  0  0  0  0
    7.7985   -1.6613   -1.0026 H   0  0  0  0  0  0  0  0  0  0  0  0
    6.6114   -2.2111   -2.1845 H   0  0  0  0  0  0  0  0  0  0  0  0
    6.9845   -3.2280   -0.7703 H   0  0  0  0  0  0  0  0  0  0  0  0
    7.0805   -0.7714    1.2022 H   0  0  0  0  0  0  0  0  0  0  0  0
    5.2824    0.2407    2.5313 H   0  0  0  0  0  0  0  0  0  0  0  0
    3.0910    0.5629    2.7369 H   0  0  0  0  0  0  0  0  0  0  0  0
    3.2698    1.4045   -1.7308 H   0  0  0  0  0  0  0  0  0  0  0  0
   -1.0091    4.2724   -0.8181 H   0  0  0  0  0  0  0  0  0  0  0  0
    0.5600    5.1260   -0.8035 H   0  0  0  0  0  0  0  0  0  0  0  0
   -0.1577    4.5870   -2.3589 H   0  0  0  0  0  0  0  0  0  0  0  0
  1  2  1  0
  2  3  2  3
  3  4  1  0
  4  5  1  0
  5  6  1  0
  6  7  1  0
  7  8  1  0
  7  9  1  0
  2 10  1  0
 10 11  2  0
 11 12  1  0
 12 13  1  0
 13 14  2  0
 14 15  1  0
 15 16  1  0
 15 17  2  0
 17 18  1  0
 18 19  2  0
 19 20  1  0
 11 21  1  0
 21 22  1  0
 22 23  2  0
 23 24  1  0
 24 25  1  0
 24 26  1  0
 26  1  1  0
 19 13  1  0
 26 21  2  0
  1 27  1  0
  4 28  1  0
  4 29  1  0
  5 30  1  0
  5 31  1  0
  7 32  1  0
  8 33  1  0
  8 34  1  0
  8 35  1  0
  9 36  1  0
  9 37  1  0
  9 38  1  0
 12 39  1  0
 14 40  1  0
 16 41  1  0
 16 42  1  0
 16 43  1  0
 17 44  1  0
 18 45  1  0
 20 46  1  0
 22 47  1  0
 25 48  1  0
 25 49  1  0
 25 50  1  0
M  END
>  <ScrubInfo>  (4) 
{"isomerGroup": 0, "isomerId": 3, "confId": 0, "nr_conformers:": 1, "nr_isomers:": 9}

$$$$
_i4
     RDKit          3D

 50 52  0  0  0  0  0  0  0  0999 V2000
    0.6144    0.5358   -0.0092 N   0  0  0  0  0  0  0  0  0  0  0  0
    0.6281   -0.8075   -0.2891 C   0  0  0  0  0  0  0  0  0  0  0  0
    1.8487   -1.3935   -0.4377 N   0  0  0  0  0  0  0  0  0  0  0  0
    3.0807   -0.9903    0.2099 C   0  0  0  0  0  0  0  0  0  0  0  0
    3.9660   -0.1875   -0.7496 C   0  0  0  0  0  0  0  0  0  0  0  0
    5.0097    0.4838   -0.0413 O   0  0  0  0  0  0  0  0  0  0  0  0
    6.1732   -0.3167    0.1911 C   0  0  0  0  0  0  0  0  0  0  0  0
    6.8785    0.2605    1.4127 C   0  0  0  0  0  0  0  0  0  0  0  0
    7.0919   -0.2663   -1.0253 C   0  0  0  0  0  0  0  0  0  0  0  0
   -0.4328   -1.5540   -0.4289 N   0  0  0  0  0  0  0  0  0  0  0  0
   -1.6992   -0.9981   -0.2999 C   0  0  0  0  0  0  0  0  0  0  0  0
   -2.6881   -1.8176   -0.4754 N   0  0  0  0  0  0  0  0  0  0  0  0
   -4.0223   -1.4033   -0.4029 C   0  0  0  0  0  0  0  0  0  0  0  0
   -4.6709   -0.8438   -1.5064 C   0  0  0  0  0  0  0  0  0  0  0  0
   -6.0108   -0.4368   -1.4138 C   0  0  0  0  0  0  0  0  0  0  0  0
   -6.7075    0.1481   -2.6067 C   0  0  0  0  0  0  0  0  0  0  0  0
   -6.7080   -0.6385   -0.2128 C   0  0  0  0  0  0  0  0  0  0  0  0
   -6.0774   -1.2287    0.8838 C   0  0  0  0  0  0  0  0  0  0  0  0
   -4.7493   -1.6152    0.7739 C   0  0  0  0  0  0  0  0  0  0  0  0
   -4.1483   -2.2278    1.8405 O   0  0  0  0  0  0  0  0  0  0  0  0
   -1.7600    0.4173    0.0230 C   0  0  0  0  0  0  0  0  0  0  0  0
   -2.7440    1.3881    0.2858 C   0  0  0  0  0  0  0  0  0  0  0  0
   -2.2264    2.6040    0.5249 N   0  0  0  0  0  0  0  0  0  0  0  0
   -0.8921    2.4095    0.4322 N   0  0  0  0  0  0  0  0  0  0  0  0
   -0.0070    3.5251    0.6505 C   0  0  0  0  0  0  0  0  0  0  0  0
   -0.5865    1.1181    0.1439 C   0  0  0  0  0  0  0  0  0  0  0  0
    1.4873    1.0425   -0.0034 H   0  0  0  0  0  0  0  0  0  0  0  0
    1.7507   -2.3983   -0.5638 H   0  0  0  0  0  0  0  0  0  0  0  0
    2.8832   -0.4175    1.1240 H   0  0  0  0  0  0  0  0  0  0  0  0
    3.6200   -1.8860    0.5385 H   0  0  0  0  0  0  0  0  0  0  0  0
    3.3718    0.5942   -1.2352 H   0  0  0  0  0  0  0  0  0  0  0  0
    4.3623   -0.8227   -1.5496 H   0  0  0  0  0  0  0  0  0  0  0  0
    5.8906   -1.3532    0.4074 H   0  0  0  0  0  0  0  0  0  0  0  0
    6.2113    0.2399    2.2814 H   0  0  0  0  0  0  0  0  0  0  0  0
    7.7830   -0.3055    1.6553 H   0  0  0  0  0  0  0  0  0  0  0  0
    7.1520    1.3092    1.2515 H   0  0  0  0  0  0  0  0  0  0  0  0
    8.0205   -0.8162   -0.8427 H   0  0  0  0  0  0  0  0  0  0  0  0
    6.6069   -0.7007   -1.9048 H   0  0  0  0  0  0  0  0  0  0  0  0
    7.3415    0.7686   -1.2842 H   0  0  0  0  0  0  0  0  0  0  0  0
   -4.1232   -0.7229   -2.4378 H   0  0  0  0  0  0  0  0  0  0  0  0
   -7.1582   -0.6495   -3.2051 H   0  0  0  0  0  0  0  0  0  0  0  0
   -7.4928    0.8458   -2.2971 H   0  0  0  0  0  0  0  0  0  0  0  0
   -6.0050    0.7078   -3.2330 H   0  0  0  0  0  0  0  0  0  0  0  0
   -7.7530   -0.3475   -0.1288 H   0  0  0  0  0  0  0  0  0  0  0  0
   -6.6201   -1.3990    1.8084 H   0  0  0  0  0  0  0  0  0  0  0  0
   -3.2914   -2.5444    1.4874 H   0  0  0  0  0  0  0  0  0  0  0  0
   -3.8201    1.2845    0.3186 H   0  0  0  0  0  0  0  0  0  0  0  0
    1.0318    3.2040    0.5508 H   0  0  0  0  0  0  0  0  0  0  0  0
   -0.2301    4.2924   -0.0951 H   0  0  0  0  0  0  0  0  0  0  0  0
   -0.1797    3.9099    1.6588 H   0  0  0  0  0  0  0  0  0  0  0  0
  1  2  1  0
  2  3  1  0
  3  4  1  0
  4  5  1  0
  5  6  1  0
  6  7  1  0
  7  8  1  0
  7  9  1  0
  2 10  2  0
 10 11  1  0
 11 12  2  3
 12 13  1  0
 13 14  2  0
 14 15  1  0
 15 16  1  0
 15 17  2  0
 17 18  1  0
 18 19  2  0
 19 20  1  0
 11 21  1  0
 21 22  1  0
 22 23  2  0
 23 24  1  0
 24 25  1  0
 24 26  1  0
 26  1  1  0
 19 13  1  0
 26 21  2  0
  1 27  1  0
  3 28  1  0
  4 29  1  0
  4 30  1  0
  5 31  1  0
  5 32  1  0
  7 33  1  0
  8 34  1  0
  8 35  1  0
  8 36  1  0
  9 37  1  0
  9 38  1  0
  9 39  1  0
 14 40  1  0
 16 41  1  0
 16 42  1  0
 16 43  1  0
 17 44  1  0
 18 45  1  0
 20 46  1  0
 22 47  1  0
 25 48  1  0
 25 49  1  0
 25 50  1  0
M  END
>  <ScrubInfo>  (5) 
{"isomerGroup": 0, "isomerId": 4, "confId": 0, "nr_conformers:": 1, "nr_isomers:": 9}

$$$$
_i5
     RDKit          3D

 50 52  0  0  0  0  0  0  0  0999 V2000
    1.9191   -1.9037   -2.2078 N   0  0  0  0  0  0  0  0  0  0  0  0
    2.5190   -0.9509   -1.3909 C   0  0  0  0  0  0  0  0  0  0  0  0
    1.6432   -0.2569   -0.6476 C   0  0  0  0  0  0  0  0  0  0  0  0
    1.6317    0.8303    0.3229 C   0  0  0  0  0  0  0  0  0  0  0  0
    2.6018    1.4667    0.8926 N   0  0  0  0  0  0  0  0  0  0  0  0
    3.9314    1.1118    0.6291 C   0  0  0  0  0  0  0  0  0  0  0  0
    4.5558    0.0683    1.3167 C   0  0  0  0  0  0  0  0  0  0  0  0
    5.8856   -0.2772    1.0310 C   0  0  0  0  0  0  0  0  0  0  0  0
    6.5603   -1.3804    1.7917 C   0  0  0  0  0  0  0  0  0  0  0  0
    6.5967    0.4630    0.0740 C   0  0  0  0  0  0  0  0  0  0  0  0
    5.9893    1.5263   -0.5962 C   0  0  0  0  0  0  0  0  0  0  0  0
    4.6711    1.8460   -0.3042 C   0  0  0  0  0  0  0  0  0  0  0  0
    4.0904    2.9095   -0.9407 O   0  0  0  0  0  0  0  0  0  0  0  0
    0.3759    1.2489    0.6742 N   0  0  0  0  0  0  0  0  0  0  0  0
   -0.7108    0.6692    0.2571 C   0  0  0  0  0  0  0  0  0  0  0  0
   -1.8824    1.2035    0.7066 N   0  0  0  0  0  0  0  0  0  0  0  0
   -3.1577    1.0269    0.0417 C   0  0  0  0  0  0  0  0  0  0  0  0
   -3.7847   -0.3390    0.3456 C   0  0  0  0  0  0  0  0  0  0  0  0
   -5.1438   -0.3845   -0.1065 O   0  0  0  0  0  0  0  0  0  0  0  0
   -6.0953    0.0555    0.8671 C   0  0  0  0  0  0  0  0  0  0  0  0
   -7.3175    0.5577    0.1079 C   0  0  0  0  0  0  0  0  0  0  0  0
   -6.4768   -1.1055    1.7799 C   0  0  0  0  0  0  0  0  0  0  0  0
   -0.7613   -0.4076   -0.5834 N   0  0  0  0  0  0  0  0  0  0  0  0
    0.3559   -0.8711   -1.0225 C   0  0  0  0  0  0  0  0  0  0  0  0
    0.5705   -1.9452   -1.8868 N   0  0  0  0  0  0  0  0  0  0  0  0
   -0.3914   -2.2724   -2.9222 C   0  0  0  0  0  0  0  0  0  0  0  0
    2.4119   -2.7997   -2.2167 H   0  0  0  0  0  0  0  0  0  0  0  0
    3.5944   -0.8539   -1.4248 H   0  0  0  0  0  0  0  0  0  0  0  0
    3.9983   -0.4721    2.0778 H   0  0  0  0  0  0  0  0  0  0  0  0
    7.0263   -0.9799    2.6972 H   0  0  0  0  0  0  0  0  0  0  0  0
    7.3304   -1.8621    1.1801 H   0  0  0  0  0  0  0  0  0  0  0  0
    5.8404   -2.1550    2.0760 H   0  0  0  0  0  0  0  0  0  0  0  0
    7.6359    0.2249   -0.1438 H   0  0  0  0  0  0  0  0  0  0  0  0
    6.5430    2.1100   -1.3251 H   0  0  0  0  0  0  0  0  0  0  0  0
    3.2431    3.0425   -0.4668 H   0  0  0  0  0  0  0  0  0  0  0  0
   -1.7354    2.1048    1.1456 H   0  0  0  0  0  0  0  0  0  0  0  0
   -3.0610    1.1690   -1.0416 H   0  0  0  0  0  0  0  0  0  0  0  0
   -3.8336    1.8207    0.3793 H   0  0  0  0  0  0  0  0  0  0  0  0
   -3.2487   -1.1249   -0.1952 H   0  0  0  0  0  0  0  0  0  0  0  0
   -3.7160   -0.5815    1.4121 H   0  0  0  0  0  0  0  0  0  0  0  0
   -5.6866    0.8821    1.4601 H   0  0  0  0  0  0  0  0  0  0  0  0
   -7.0381    1.3798   -0.5602 H   0  0  0  0  0  0  0  0  0  0  0  0
   -8.0934    0.9141    0.7923 H   0  0  0  0  0  0  0  0  0  0  0  0
   -7.7408   -0.2308   -0.5243 H   0  0  0  0  0  0  0  0  0  0  0  0
   -5.6106   -1.4653    2.3437 H   0  0  0  0  0  0  0  0  0  0  0  0
   -7.2500   -0.8086    2.4953 H   0  0  0  0  0  0  0  0  0  0  0  0
   -6.8458   -1.9564    1.1965 H   0  0  0  0  0  0  0  0  0  0  0  0
   -1.3831   -2.4370   -2.4886 H   0  0  0  0  0  0  0  0  0  0  0  0
   -0.4603   -1.4652   -3.6589 H   0  0  0  0  0  0  0  0  0  0  0  0
   -0.0963   -3.1913   -3.4392 H   0  0  0  0  0  0  0  0  0  0  0  0
  1  2  1  0
  2  3  2  0
  3  4  1  0
  4  5  2  3
  5  6  1  0
  6  7  2  0
  7  8  1  0
  8  9  1  0
  8 10  2  0
 10 11  1  0
 11 12  2  0
 12 13  1  0
  4 14  1  0
 14 15  2  0
 15 16  1  0
 16 17  1  0
 17 18  1  0
 18 19  1  0
 19 20  1  0
 20 21  1  0
 20 22  1  0
 15 23  1  0
 23 24  2  0
 24 25  1  0
 25 26  1  0
 25  1  1  0
 24  3  1  0
 12  6  1  0
  1 27  1  0
  2 28  1  0
  7 29  1  0
  9 30  1  0
  9 31  1  0
  9 32  1  0
 10 33  1  0
 11 34  1  0
 13 35  1  0
 16 36  1  0
 17 37  1  0
 17 38  1  0
 18 39  1  0
 18 40  1  0
 20 41  1  0
 21 42  1  0
 21 43  1  0
 21 44  1  0
 22 45  1  0
 22 46  1  0
 22 47  1  0
 26 48  1  0
 26 49  1  0
 26 50  1  0
M  END
>  <ScrubInfo>  (6) 
{"isomerGroup": 0, "isomerId": 5, "confId": 0, "nr_conformers:": 1, "nr_isomers:": 9}

$$$$
_i6
     RDKit          3D

 50 52  0  0  0  0  0  0  0  0999 V2000
    1.8115   -4.3293   -1.9833 N   0  0  0  0  0  0  0  0  0  0  0  0
    2.4492   -3.2017   -1.4777 C   0  0  0  0  0  0  0  0  0  0  0  0
    1.6100   -2.3612   -0.8561 C   0  0  0  0  0  0  0  0  0  0  0  0
    1.6621   -1.0645   -0.1728 C   0  0  0  0  0  0  0  0  0  0  0  0
    2.8706   -0.4138   -0.0467 N   0  0  0  0  0  0  0  0  0  0  0  0
    3.2427    0.7775    0.6165 C   0  0  0  0  0  0  0  0  0  0  0  0
    4.4908    1.3328    0.2465 C   0  0  0  0  0  0  0  0  0  0  0  0
    4.9978    2.5084    0.8250 C   0  0  0  0  0  0  0  0  0  0  0  0
    6.3117    3.0743    0.3747 C   0  0  0  0  0  0  0  0  0  0  0  0
    4.2328    3.1718    1.7817 C   0  0  0  0  0  0  0  0  0  0  0  0
    2.9969    2.6549    2.1589 C   0  0  0  0  0  0  0  0  0  0  0  0
    2.5045    1.4816    1.5775 C   0  0  0  0  0  0  0  0  0  0  0  0
    1.2886    1.0941    2.0613 O   0  0  0  0  0  0  0  0  0  0  0  0
    0.5361   -0.5849    0.2702 N   0  0  0  0  0  0  0  0  0  0  0  0
   -0.6370   -1.2832    0.0698 C   0  0  0  0  0  0  0  0  0  0  0  0
   -1.6750   -0.6517    0.4848 N   0  0  0  0  0  0  0  0  0  0  0  0
   -2.9800   -1.3000    0.3171 C   0  0  0  0  0  0  0  0  0  0  0  0
   -4.0827   -0.3016    0.6796 C   0  0  0  0  0  0  0  0  0  0  0  0
   -4.3123    0.5832   -0.4230 O   0  0  0  0  0  0  0  0  0  0  0  0
   -5.1762    1.6737   -0.0986 C   0  0  0  0  0  0  0  0  0  0  0  0
   -4.3790    2.8068    0.5397 C   0  0  0  0  0  0  0  0  0  0  0  0
   -5.8132    2.1448   -1.4009 C   0  0  0  0  0  0  0  0  0  0  0  0
   -0.7697   -2.5325   -0.4878 N   0  0  0  0  0  0  0  0  0  0  0  0
    0.3126   -3.0667   -0.9329 C   0  0  0  0  0  0  0  0  0  0  0  0
    0.4933   -4.3089   -1.5412 N   0  0  0  0  0  0  0  0  0  0  0  0
   -0.5433   -4.8865   -2.3766 C   0  0  0  0  0  0  0  0  0  0  0  0
    2.3234   -5.2006   -1.8236 H   0  0  0  0  0  0  0  0  0  0  0  0
    3.5155   -3.1045   -1.6183 H   0  0  0  0  0  0  0  0  0  0  0  0
    3.6549   -0.8449   -0.5181 H   0  0  0  0  0  0  0  0  0  0  0  0
    5.0909    0.8427   -0.5182 H   0  0  0  0  0  0  0  0  0  0  0  0
    6.7851    3.6518    1.1757 H   0  0  0  0  0  0  0  0  0  0  0  0
    7.0062    2.2740    0.0983 H   0  0  0  0  0  0  0  0  0  0  0  0
    6.1610    3.7277   -0.4901 H   0  0  0  0  0  0  0  0  0  0  0  0
    4.5866    4.0926    2.2386 H   0  0  0  0  0  0  0  0  0  0  0  0
    2.3998    3.1694    2.9081 H   0  0  0  0  0  0  0  0  0  0  0  0
    0.8732    0.5049    1.3956 H   0  0  0  0  0  0  0  0  0  0  0  0
   -3.0456   -2.1572    0.9971 H   0  0  0  0  0  0  0  0  0  0  0  0
   -3.1255   -1.6372   -0.7161 H   0  0  0  0  0  0  0  0  0  0  0  0
   -5.0140   -0.8469    0.8694 H   0  0  0  0  0  0  0  0  0  0  0  0
   -3.8110    0.2569    1.5815 H   0  0  0  0  0  0  0  0  0  0  0  0
   -5.9710    1.3385    0.5790 H   0  0  0  0  0  0  0  0  0  0  0  0
   -3.9459    2.4972    1.4957 H   0  0  0  0  0  0  0  0  0  0  0  0
   -5.0113    3.6814    0.7221 H   0  0  0  0  0  0  0  0  0  0  0  0
   -3.5422    3.1052   -0.1015 H   0  0  0  0  0  0  0  0  0  0  0  0
   -6.4988    2.9803   -1.2301 H   0  0  0  0  0  0  0  0  0  0  0  0
   -5.0501    2.4574   -2.1225 H   0  0  0  0  0  0  0  0  0  0  0  0
   -6.3713    1.3265   -1.8690 H   0  0  0  0  0  0  0  0  0  0  0  0
   -0.2611   -5.8973   -2.6884 H   0  0  0  0  0  0  0  0  0  0  0  0
   -1.4868   -4.9576   -1.8260 H   0  0  0  0  0  0  0  0  0  0  0  0
   -0.7047   -4.2779   -3.2725 H   0  0  0  0  0  0  0  0  0  0  0  0
  1  2  1  0
  2  3  2  0
  3  4  1  0
  4  5  1  0
  5  6  1  0
  6  7  2  0
  7  8  1  0
  8  9  1  0
  8 10  2  0
 10 11  1  0
 11 12  2  0
 12 13  1  0
  4 14  2  0
 14 15  1  0
 15 16  2  3
 16 17  1  0
 17 18  1  0
 18 19  1  0
 19 20  1  0
 20 21  1  0
 20 22  1  0
 15 23  1  0
 23 24  2  0
 24 25  1  0
 25 26  1  0
 25  1  1  0
 24  3  1  0
 12  6  1  0
  1 27  1  0
  2 28  1  0
  5 29  1  0
  7 30  1  0
  9 31  1  0
  9 32  1  0
  9 33  1  0
 10 34  1  0
 11 35  1  0
 13 36  1  0
 17 37  1  0
 17 38  1  0
 18 39  1  0
 18 40  1  0
 20 41  1  0
 21 42  1  0
 21 43  1  0
 21 44  1  0
 22 45  1  0
 22 46  1  0
 22 47  1  0
 26 48  1  0
 26 49  1  0
 26 50  1  0
M  END
>  <ScrubInfo>  (7) 
{"isomerGroup": 0, "isomerId": 6, "confId": 0, "nr_conformers:": 1, "nr_isomers:": 9}

$$$$
_i7
     RDKit          3D

 50 52  0  0  0  0  0  0  0  0999 V2000
   -0.8290    1.6070    0.1438 N   0  0  0  0  0  0  0  0  0  0  0  0
   -1.1692    0.4027    0.7360 C   0  0  0  0  0  0  0  0  0  0  0  0
   -2.3347   -0.0150    1.0905 N   0  0  0  0  0  0  0  0  0  0  0  0
   -3.5198    0.8144    0.8751 C   0  0  0  0  0  0  0  0  0  0  0  0
   -4.0591    0.6833   -0.5563 C   0  0  0  0  0  0  0  0  0  0  0  0
   -4.2682   -0.6513   -1.0157 O   0  0  0  0  0  0  0  0  0  0  0  0
   -5.1707   -1.4574   -0.2568 C   0  0  0  0  0  0  0  0  0  0  0  0
   -5.0914   -2.8659   -0.8385 C   0  0  0  0  0  0  0  0  0  0  0  0
   -6.6019   -0.9360   -0.3396 C   0  0  0  0  0  0  0  0  0  0  0  0
   -0.0866   -0.4211    0.9544 N   0  0  0  0  0  0  0  0  0  0  0  0
    1.2546   -0.2728    0.6759 C   0  0  0  0  0  0  0  0  0  0  0  0
    2.1050   -1.2168    0.9544 N   0  0  0  0  0  0  0  0  0  0  0  0
    3.4641   -1.1124    0.6286 C   0  0  0  0  0  0  0  0  0  0  0  0
    3.9270   -1.4411   -0.6483 C   0  0  0  0  0  0  0  0  0  0  0  0
    5.2913   -1.3388   -0.9608 C   0  0  0  0  0  0  0  0  0  0  0  0
    5.7837   -1.7088   -2.3289 C   0  0  0  0  0  0  0  0  0  0  0  0
    6.1959   -0.9444    0.0363 C   0  0  0  0  0  0  0  0  0  0  0  0
    5.7468   -0.6450    1.3234 C   0  0  0  0  0  0  0  0  0  0  0  0
    4.3920   -0.7422    1.6089 C   0  0  0  0  0  0  0  0  0  0  0  0
    3.9686   -0.4763    2.8829 O   0  0  0  0  0  0  0  0  0  0  0  0
    1.5155    1.0242    0.0740 C   0  0  0  0  0  0  0  0  0  0  0  0
    2.6351    1.7547   -0.3673 C   0  0  0  0  0  0  0  0  0  0  0  0
    2.3100    2.9590   -0.8610 N   0  0  0  0  0  0  0  0  0  0  0  0
    0.9676    3.0093   -0.7313 N   0  0  0  0  0  0  0  0  0  0  0  0
    0.2633    4.1907   -1.1619 C   0  0  0  0  0  0  0  0  0  0  0  0
    0.4609    1.8811   -0.1622 C   0  0  0  0  0  0  0  0  0  0  0  0
   -1.5760    2.2597   -0.0434 H   0  0  0  0  0  0  0  0  0  0  0  0
   -4.2834    0.4879    1.5891 H   0  0  0  0  0  0  0  0  0  0  0  0
   -3.3285    1.8670    1.1141 H   0  0  0  0  0  0  0  0  0  0  0  0
   -4.9847    1.2586   -0.6643 H   0  0  0  0  0  0  0  0  0  0  0  0
   -3.3410    1.1311   -1.2517 H   0  0  0  0  0  0  0  0  0  0  0  0
   -4.8469   -1.5089    0.7875 H   0  0  0  0  0  0  0  0  0  0  0  0
   -5.3776   -2.8711   -1.8963 H   0  0  0  0  0  0  0  0  0  0  0  0
   -4.0633   -3.2411   -0.7890 H   0  0  0  0  0  0  0  0  0  0  0  0
   -5.7408   -3.5594   -0.2955 H   0  0  0  0  0  0  0  0  0  0  0  0
   -6.6994    0.0274    0.1705 H   0  0  0  0  0  0  0  0  0  0  0  0
   -7.3051   -1.6319    0.1290 H   0  0  0  0  0  0  0  0  0  0  0  0
   -6.9022   -0.7781   -1.3811 H   0  0  0  0  0  0  0  0  0  0  0  0
   -0.3359   -1.3148    1.3534 H   0  0  0  0  0  0  0  0  0  0  0  0
    3.2161   -1.7722   -1.4014 H   0  0  0  0  0  0  0  0  0  0  0  0
    6.6823   -1.1392   -2.5879 H   0  0  0  0  0  0  0  0  0  0  0  0
    5.0277   -1.4854   -3.0890 H   0  0  0  0  0  0  0  0  0  0  0  0
    6.0186   -2.7769   -2.3657 H   0  0  0  0  0  0  0  0  0  0  0  0
    7.2598   -0.8782   -0.1820 H   0  0  0  0  0  0  0  0  0  0  0  0
    6.4477   -0.3515    2.0988 H   0  0  0  0  0  0  0  0  0  0  0  0
    3.0247   -0.7301    2.8842 H   0  0  0  0  0  0  0  0  0  0  0  0
    3.6817    1.4822   -0.3554 H   0  0  0  0  0  0  0  0  0  0  0  0
   -0.7477    3.9176   -1.4730 H   0  0  0  0  0  0  0  0  0  0  0  0
    0.2293    4.8905   -0.3236 H   0  0  0  0  0  0  0  0  0  0  0  0
    0.7940    4.6355   -2.0079 H   0  0  0  0  0  0  0  0  0  0  0  0
  1  2  1  0
  2  3  2  3
  3  4  1  0
  4  5  1  0
  5  6  1  0
  6  7  1  0
  7  8  1  0
  7  9  1  0
  2 10  1  0
 10 11  1  0
 11 12  2  3
 12 13  1  0
 13 14  2  0
 14 15  1  0
 15 16  1  0
 15 17  2  0
 17 18  1  0
 18 19  2  0
 19 20  1  0
 11 21  1  0
 21 22  1  0
 22 23  2  0
 23 24  1  0
 24 25  1  0
 24 26  1  0
 26  1  1  0
 19 13  1  0
 26 21  2  0
  1 27  1  0
  4 28  1  0
  4 29  1  0
  5 30  1  0
  5 31  1  0
  7 32  1  0
  8 33  1  0
  8 34  1  0
  8 35  1  0
  9 36  1  0
  9 37  1  0
  9 38  1  0
 10 39  1  0
 14 40  1  0
 16 41  1  0
 16 42  1  0
 16 43  1  0
 17 44  1  0
 18 45  1  0
 20 46  1  0
 22 47  1  0
 25 48  1  0
 25 49  1  0
 25 50  1  0
M  END
>  <ScrubInfo>  (8) 
{"isomerGroup": 0, "isomerId": 7, "confId": 0, "nr_conformers:": 1, "nr_isomers:": 9}

$$$$
_i8
     RDKit          3D

 50 52  0  0  0  0  0  0  0  0999 V2000
    1.7961   -1.9540   -2.1610 N   0  0  0  0  0  0  0  0  0  0  0  0
    2.4171   -1.0743   -1.2807 C   0  0  0  0  0  0  0  0  0  0  0  0
    1.5622   -0.2802   -0.6207 C   0  0  0  0  0  0  0  0  0  0  0  0
    1.5600    0.8133    0.3718 C   0  0  0  0  0  0  0  0  0  0  0  0
    2.5583    1.3805    0.9809 N   0  0  0  0  0  0  0  0  0  0  0  0
    3.8790    1.0132    0.6863 C   0  0  0  0  0  0  0  0  0  0  0  0
    4.5605    0.1630    1.5632 C   0  0  0  0  0  0  0  0  0  0  0  0
    5.8919   -0.2059    1.3229 C   0  0  0  0  0  0  0  0  0  0  0  0
    6.6165   -1.0948    2.2900 C   0  0  0  0  0  0  0  0  0  0  0  0
    6.5542    0.3200    0.2066 C   0  0  0  0  0  0  0  0  0  0  0  0
    5.8936    1.1853   -0.6682 C   0  0  0  0  0  0  0  0  0  0  0  0
    4.5649    1.5298   -0.4240 C   0  0  0  0  0  0  0  0  0  0  0  0
    3.9068    2.3681   -1.2848 O   0  0  0  0  0  0  0  0  0  0  0  0
    0.2933    1.2485    0.6562 N   0  0  0  0  0  0  0  0  0  0  0  0
   -0.8800    0.8037    0.1180 C   0  0  0  0  0  0  0  0  0  0  0  0
   -1.9810    1.3787    0.4763 N   0  0  0  0  0  0  0  0  0  0  0  0
   -3.2372    0.9093   -0.1183 C   0  0  0  0  0  0  0  0  0  0  0  0
   -3.8100   -0.2737    0.6667 C   0  0  0  0  0  0  0  0  0  0  0  0
   -5.0905   -0.6611    0.1579 O   0  0  0  0  0  0  0  0  0  0  0  0
   -6.1841    0.0752    0.7119 C   0  0  0  0  0  0  0  0  0  0  0  0
   -7.3096    0.0511   -0.3155 C   0  0  0  0  0  0  0  0  0  0  0  0
   -6.6395   -0.5767    2.0136 C   0  0  0  0  0  0  0  0  0  0  0  0
   -0.9089   -0.2443   -0.7750 N   0  0  0  0  0  0  0  0  0  0  0  0
    0.2266   -0.7702   -1.1149 C   0  0  0  0  0  0  0  0  0  0  0  0
    0.4254   -1.8526   -1.9754 N   0  0  0  0  0  0  0  0  0  0  0  0
   -0.4621   -2.0862   -3.0985 C   0  0  0  0  0  0  0  0  0  0  0  0
    2.1855   -2.8987   -2.1299 H   0  0  0  0  0  0  0  0  0  0  0  0
    3.4934   -1.1062   -1.2023 H   0  0  0  0  0  0  0  0  0  0  0  0
    4.0402   -0.2056    2.4443 H   0  0  0  0  0  0  0  0  0  0  0  0
    7.0881   -0.4915    3.0717 H   0  0  0  0  0  0  0  0  0  0  0  0
    7.3888   -1.6796    1.7794 H   0  0  0  0  0  0  0  0  0  0  0  0
    5.9275   -1.8059    2.7578 H   0  0  0  0  0  0  0  0  0  0  0  0
    7.5944    0.0632    0.0162 H   0  0  0  0  0  0  0  0  0  0  0  0
    6.4269    1.5785   -1.5279 H   0  0  0  0  0  0  0  0  0  0  0  0
    4.5503    2.7587   -1.8963 H   0  0  0  0  0  0  0  0  0  0  0  0
    0.2168    2.0271    1.2925 H   0  0  0  0  0  0  0  0  0  0  0  0
   -3.1440    0.6623   -1.1834 H   0  0  0  0  0  0  0  0  0  0  0  0
   -3.9452    1.7454   -0.0958 H   0  0  0  0  0  0  0  0  0  0  0  0
   -3.1511   -1.1416    0.5585 H   0  0  0  0  0  0  0  0  0  0  0  0
   -3.8627   -0.0496    1.7381 H   0  0  0  0  0  0  0  0  0  0  0  0
   -5.8993    1.1175    0.8948 H   0  0  0  0  0  0  0  0  0  0  0  0
   -6.9754    0.5039   -1.2554 H   0  0  0  0  0  0  0  0  0  0  0  0
   -8.1872    0.5985    0.0417 H   0  0  0  0  0  0  0  0  0  0  0  0
   -7.6074   -0.9769   -0.5504 H   0  0  0  0  0  0  0  0  0  0  0  0
   -6.8862   -1.6327    1.8567 H   0  0  0  0  0  0  0  0  0  0  0  0
   -5.8460   -0.5496    2.7668 H   0  0  0  0  0  0  0  0  0  0  0  0
   -7.5173   -0.0685    2.4247 H   0  0  0  0  0  0  0  0  0  0  0  0
   -1.5006   -2.1632   -2.7607 H   0  0  0  0  0  0  0  0  0  0  0  0
   -0.3894   -1.2723   -3.8273 H   0  0  0  0  0  0  0  0  0  0  0  0
   -0.2039   -3.0252   -3.5990 H   0  0  0  0  0  0  0  0  0  0  0  0
  1  2  1  0
  2  3  2  0
  3  4  1  0
  4  5  2  3
  5  6  1  0
  6  7  2  0
  7  8  1  0
  8  9  1  0
  8 10  2  0
 10 11  1  0
 11 12  2  0
 12 13  1  0
  4 14  1  0
 14 15  1  0
 15 16  2  3
 16 17  1  0
 17 18  1  0
 18 19  1  0
 19 20  1  0
 20 21  1  0
 20 22  1  0
 15 23  1  0
 23 24  2  0
 24 25  1  0
 25 26  1  0
 25  1  1  0
 24  3  1  0
 12  6  1  0
  1 27  1  0
  2 28  1  0
  7 29  1  0
  9 30  1  0
  9 31  1  0
  9 32  1  0
 10 33  1  0
 11 34  1  0
 13 35  1  0
 14 36  1  0
 17 37  1  0
 17 38  1  0
 18 39  1  0
 18 40  1  0
 20 41  1  0
 21 42  1  0
 21 43  1  0
 21 44  1  0
 22 45  1  0
 22 46  1  0
 22 47  1  0
 26 48  1  0
 26 49  1  0
 26 50  1  0
M  END
>  <ScrubInfo>  (9) 
{"isomerGroup": 0, "isomerId": 8, "confId": 0, "nr_conformers:": 1, "nr_isomers:": 9}

$$$$
