_i0
     RDKit          3D

 45 47  0  0  0  0  0  0  0  0999 V2000
   -4.6110   -1.6910   -0.9740 C   0  0  0  0  0  0  0  0  0  0  0  0
   -4.1336   -0.8895    0.2404 C   0  0  0  0  0  0  0  0  0  0  0  0
   -5.2673   -0.7715    1.2593 C   0  0  0  0  0  0  0  0  0  0  0  0
   -2.8722   -1.5488    0.8337 C   0  0  0  0  0  0  0  0  0  0  0  0
   -2.2541   -0.8315    2.0407 C   0  0  0  0  0  0  0  0  0  0  0  0
   -1.8807    0.5431    1.7600 N   0  0  0  0  0  0  0  0  0  0  0  0
   -0.8165    0.7551    0.8996 C   0  0  0  0  0  0  0  0  0  0  0  0
    0.1932   -0.1354    0.8567 N   0  0  0  0  0  0  0  0  0  0  0  0
    1.2567    0.0712    0.0413 C   0  0  0  0  0  0  0  0  0  0  0  0
    2.2562   -0.9063    0.0577 N   0  0  0  0  0  0  0  0  0  0  0  0
    3.6633   -0.7992    0.0839 C   0  0  0  0  0  0  0  0  0  0  0  0
    4.3249    0.4275    0.2346 C   0  0  0  0  0  0  0  0  0  0  0  0
    5.7222    0.5016    0.2122 C   0  0  0  0  0  0  0  0  0  0  0  0
    6.4780   -0.6538    0.0361 C   0  0  0  0  0  0  0  0  0  0  0  0
    8.1947   -0.5559    0.0095 Cl  0  0  0  0  0  0  0  0  0  0  0  0
    5.8531   -1.8862   -0.1125 C   0  0  0  0  0  0  0  0  0  0  0  0
    4.4578   -1.9544   -0.0886 C   0  0  0  0  0  0  0  0  0  0  0  0
    3.7227   -3.5126   -0.2697 Cl  0  0  0  0  0  0  0  0  0  0  0  0
    1.2230    1.1881   -0.7962 C   0  0  0  0  0  0  0  0  0  0  0  0
    1.9860    1.7608   -1.8350 C   0  0  0  0  0  0  0  0  0  0  0  0
    1.4587    2.8976   -2.3041 N   0  0  0  0  0  0  0  0  0  0  0  0
    0.3270    3.0358   -1.5748 N   0  0  0  0  0  0  0  0  0  0  0  0
   -0.5372    4.1639   -1.8140 C   0  0  0  0  0  0  0  0  0  0  0  0
    0.1328    2.0266   -0.6717 C   0  0  0  0  0  0  0  0  0  0  0  0
   -0.9050    1.8695    0.1630 N   0  0  0  0  0  0  0  0  0  0  0  0
   -3.8242   -1.7524   -1.7334 H   0  0  0  0  0  0  0  0  0  0  0  0
   -5.4826   -1.2153   -1.4362 H   0  0  0  0  0  0  0  0  0  0  0  0
   -4.8917   -2.7116   -0.6921 H   0  0  0  0  0  0  0  0  0  0  0  0
   -3.8823    0.1180   -0.1120 H   0  0  0  0  0  0  0  0  0  0  0  0
   -5.5165   -1.7468    1.6908 H   0  0  0  0  0  0  0  0  0  0  0  0
   -5.0000   -0.0942    2.0759 H   0  0  0  0  0  0  0  0  0  0  0  0
   -6.1715   -0.3696    0.7893 H   0  0  0  0  0  0  0  0  0  0  0  0
   -2.1174   -1.6395    0.0423 H   0  0  0  0  0  0  0  0  0  0  0  0
   -3.1143   -2.5752    1.1395 H   0  0  0  0  0  0  0  0  0  0  0  0
   -2.9691   -0.8267    2.8708 H   0  0  0  0  0  0  0  0  0  0  0  0
   -1.3919   -1.4028    2.4075 H   0  0  0  0  0  0  0  0  0  0  0  0
   -2.6304    1.1618    1.4755 H   0  0  0  0  0  0  0  0  0  0  0  0
    1.9269   -1.7073    0.5933 H   0  0  0  0  0  0  0  0  0  0  0  0
    3.7702    1.3462    0.4063 H   0  0  0  0  0  0  0  0  0  0  0  0
    6.2105    1.4652    0.3389 H   0  0  0  0  0  0  0  0  0  0  0  0
    6.4446   -2.7876   -0.2463 H   0  0  0  0  0  0  0  0  0  0  0  0
    2.9072    1.3954   -2.2704 H   0  0  0  0  0  0  0  0  0  0  0  0
   -1.3677    4.1568   -1.1045 H   0  0  0  0  0  0  0  0  0  0  0  0
   -0.9196    4.0924   -2.8353 H   0  0  0  0  0  0  0  0  0  0  0  0
    0.0474    5.0788   -1.6879 H   0  0  0  0  0  0  0  0  0  0  0  0
  1  2  1  0
  2  3  1  0
  2  4  1  0
  4  5  1  0
  5  6  1  0
  6  7  1  0
  7  8  2  0
  8  9  1  0
  9 10  1  0
 10 11  1  0
 11 12  2  0
 12 13  1  0
 13 14  2  0
 14 15  1  0
 14 16  1  0
 16 17  2  0
 17 18  1  0
  9 19  2  0
 19 20  1  0
 20 21  2  0
 21 22  1  0
 22 23  1  0
 22 24  1  0
 24 25  2  0
 25  7  1  0
 17 11  1  0
 24 19  1  0
  1 26  1  0
  1 27  1  0
  1 28  1  0
  2 29  1  0
  3 30  1  0
  3 31  1  0
  3 32  1  0
  4 33  1  0
  4 34  1  0
  5 35  1  0
  5 36  1  0
  6 37  1  0
 10 38  1  0
 12 39  1  0
 13 40  1  0
 16 41  1  0
 20 42  1  0
 23 43  1  0
 23 44  1  0
 23 45  1  0
M  END
>  <ScrubInfo>  (1) 
{"isomerGroup": 0, "isomerId": 0, "confId": 0, "nr_conformers:": 1, "nr_isomers:": 9}

$$$$
_i1
     RDKit          3D

 45 47  0  0  0  0  0  0  0  0999 V2000
    0.5867    0.5191   -0.2370 N   0  0  0  0  0  0  0  0  0  0  0  0
    1.6453    0.8086    0.6084 C   0  0  0  0  0  0  0  0  0  0  0  0
    2.6319   -0.1087    0.9131 N   0  0  0  0  0  0  0  0  0  0  0  0
    3.1099   -1.2160    0.1788 C   0  0  0  0  0  0  0  0  0  0  0  0
    2.8716   -1.3739   -1.1940 C   0  0  0  0  0  0  0  0  0  0  0  0
    3.3165   -2.5114   -1.8772 C   0  0  0  0  0  0  0  0  0  0  0  0
    4.0036   -3.5106   -1.1934 C   0  0  0  0  0  0  0  0  0  0  0  0
    4.5462   -4.9059   -2.0395 Cl  0  0  0  0  0  0  0  0  0  0  0  0
    4.2587   -3.3841    0.1669 C   0  0  0  0  0  0  0  0  0  0  0  0
    3.8137   -2.2458    0.8431 C   0  0  0  0  0  0  0  0  0  0  0  0
    4.1547   -2.1216    2.5372 Cl  0  0  0  0  0  0  0  0  0  0  0  0
    1.6088    2.0254    1.1648 C   0  0  0  0  0  0  0  0  0  0  0  0
    2.4031    2.8171    2.1110 C   0  0  0  0  0  0  0  0  0  0  0  0
    1.9087    4.0093    2.3266 N   0  0  0  0  0  0  0  0  0  0  0  0
    0.7805    4.0994    1.4947 N   0  0  0  0  0  0  0  0  0  0  0  0
   -0.1708    5.1619    1.7162 C   0  0  0  0  0  0  0  0  0  0  0  0
    0.4964    2.9301    0.8073 C   0  0  0  0  0  0  0  0  0  0  0  0
   -0.4925    2.6324    0.0383 N   0  0  0  0  0  0  0  0  0  0  0  0
   -0.4777    1.3580   -0.4837 C   0  0  0  0  0  0  0  0  0  0  0  0
   -1.5266    1.0810   -1.1698 N   0  0  0  0  0  0  0  0  0  0  0  0
   -1.6837   -0.2113   -1.8215 C   0  0  0  0  0  0  0  0  0  0  0  0
   -2.3301   -1.2267   -0.8767 C   0  0  0  0  0  0  0  0  0  0  0  0
   -3.7127   -0.8199   -0.3290 C   0  0  0  0  0  0  0  0  0  0  0  0
   -4.7477   -0.6283   -1.4381 C   0  0  0  0  0  0  0  0  0  0  0  0
   -4.2069   -1.8779    0.6615 C   0  0  0  0  0  0  0  0  0  0  0  0
    0.4759   -0.4566   -0.4598 H   0  0  0  0  0  0  0  0  0  0  0  0
    3.1798    0.0763    1.7510 H   0  0  0  0  0  0  0  0  0  0  0  0
    2.3744   -0.5964   -1.7693 H   0  0  0  0  0  0  0  0  0  0  0  0
    3.1299   -2.6042   -2.9449 H   0  0  0  0  0  0  0  0  0  0  0  0
    4.7982   -4.1635    0.6979 H   0  0  0  0  0  0  0  0  0  0  0  0
    3.3050    2.4049    2.5808 H   0  0  0  0  0  0  0  0  0  0  0  0
   -0.7366    5.3761    0.8039 H   0  0  0  0  0  0  0  0  0  0  0  0
    0.3400    6.0829    2.0156 H   0  0  0  0  0  0  0  0  0  0  0  0
   -0.8751    4.8839    2.5064 H   0  0  0  0  0  0  0  0  0  0  0  0
   -2.3036   -0.0761   -2.7142 H   0  0  0  0  0  0  0  0  0  0  0  0
   -0.7295   -0.6008   -2.1960 H   0  0  0  0  0  0  0  0  0  0  0  0
   -1.6556   -1.4029   -0.0293 H   0  0  0  0  0  0  0  0  0  0  0  0
   -2.4162   -2.1840   -1.4066 H   0  0  0  0  0  0  0  0  0  0  0  0
   -3.6178    0.1257    0.2188 H   0  0  0  0  0  0  0  0  0  0  0  0
   -5.7349   -0.4129   -1.0149 H   0  0  0  0  0  0  0  0  0  0  0  0
   -4.4849    0.2123   -2.0874 H   0  0  0  0  0  0  0  0  0  0  0  0
   -4.8354   -1.5262   -2.0590 H   0  0  0  0  0  0  0  0  0  0  0  0
   -3.4972   -2.0002    1.4866 H   0  0  0  0  0  0  0  0  0  0  0  0
   -5.1709   -1.5875    1.0927 H   0  0  0  0  0  0  0  0  0  0  0  0
   -4.3328   -2.8509    0.1745 H   0  0  0  0  0  0  0  0  0  0  0  0
  1  2  1  0
  2  3  1  0
  3  4  1  0
  4  5  2  0
  5  6  1  0
  6  7  2  0
  7  8  1  0
  7  9  1  0
  9 10  2  0
 10 11  1  0
  2 12  2  0
 12 13  1  0
 13 14  2  0
 14 15  1  0
 15 16  1  0
 15 17  1  0
 17 18  2  0
 18 19  1  0
 19 20  2  3
 20 21  1  0
 21 22  1  0
 22 23  1  0
 23 24  1  0
 23 25  1  0
 19  1  1  0
 10  4  1  0
 17 12  1  0
  1 26  1  0
  3 27  1  0
  5 28  1  0
  6 29  1  0
  9 30  1  0
 13 31  1  0
 16 32  1  0
 16 33  1  0
 16 34  1  0
 21 35  1  0
 21 36  1  0
 22 37  1  0
 22 38  1  0
 23 39  1  0
 24 40  1  0
 24 41  1  0
 24 42  1  0
 25 43  1  0
 25 44  1  0
 25 45  1  0
M  END
>  <ScrubInfo>  (2) 
{"isomerGroup": 0, "isomerId": 1, "confId": 0, "nr_conformers:": 1, "nr_isomers:": 9}

$$$$
_i2
     RDKit          3D

 45 47  0  0  0  0  0  0  0  0999 V2000
   -0.6114    1.1951    1.1509 N   0  0  0  0  0  0  0  0  0  0  0  0
    0.5711    0.9664    0.4875 C   0  0  0  0  0  0  0  0  0  0  0  0
    1.6499    1.5150    1.1310 N   0  0  0  0  0  0  0  0  0  0  0  0
    2.9894    1.4519    0.5584 C   0  0  0  0  0  0  0  0  0  0  0  0
    3.6172    0.0797    0.8144 C   0  0  0  0  0  0  0  0  0  0  0  0
    5.0898   -0.0098    0.3744 C   0  0  0  0  0  0  0  0  0  0  0  0
    5.6813   -1.3526    0.8104 C   0  0  0  0  0  0  0  0  0  0  0  0
    5.2557    0.1604   -1.1365 C   0  0  0  0  0  0  0  0  0  0  0  0
    0.6549    0.2943   -0.6307 N   0  0  0  0  0  0  0  0  0  0  0  0
   -0.5647   -0.1379   -1.0560 C   0  0  0  0  0  0  0  0  0  0  0  0
   -1.8013    0.0346   -0.4533 C   0  0  0  0  0  0  0  0  0  0  0  0
   -2.7035   -0.5918   -1.3306 C   0  0  0  0  0  0  0  0  0  0  0  0
   -2.1028   -1.1242   -2.4021 N   0  0  0  0  0  0  0  0  0  0  0  0
   -0.7945   -0.8456   -2.2019 N   0  0  0  0  0  0  0  0  0  0  0  0
    0.1796   -1.2826   -3.1699 C   0  0  0  0  0  0  0  0  0  0  0  0
   -1.8673    0.7516    0.8046 C   0  0  0  0  0  0  0  0  0  0  0  0
   -2.8996    0.9824    1.5580 N   0  0  0  0  0  0  0  0  0  0  0  0
   -4.1759    0.4968    1.2454 C   0  0  0  0  0  0  0  0  0  0  0  0
   -5.0682    1.3412    0.5732 C   0  0  0  0  0  0  0  0  0  0  0  0
   -6.3651    0.9151    0.2767 C   0  0  0  0  0  0  0  0  0  0  0  0
   -6.7818   -0.3563    0.6672 C   0  0  0  0  0  0  0  0  0  0  0  0
   -8.3797   -0.8779    0.3018 Cl  0  0  0  0  0  0  0  0  0  0  0  0
   -5.9185   -1.2049    1.3554 C   0  0  0  0  0  0  0  0  0  0  0  0
   -4.6225   -0.7752    1.6506 C   0  0  0  0  0  0  0  0  0  0  0  0
   -3.5844   -1.8518    2.5180 Cl  0  0  0  0  0  0  0  0  0  0  0  0
   -0.5558    1.5706    2.0832 H   0  0  0  0  0  0  0  0  0  0  0  0
    1.4599    2.4061    1.5735 H   0  0  0  0  0  0  0  0  0  0  0  0
    2.9547    1.6928   -0.5093 H   0  0  0  0  0  0  0  0  0  0  0  0
    3.6029    2.2223    1.0399 H   0  0  0  0  0  0  0  0  0  0  0  0
    3.0350   -0.7013    0.3096 H   0  0  0  0  0  0  0  0  0  0  0  0
    3.5521   -0.1398    1.8886 H   0  0  0  0  0  0  0  0  0  0  0  0
    5.6569    0.7852    0.8748 H   0  0  0  0  0  0  0  0  0  0  0  0
    5.1567   -2.1903    0.3383 H   0  0  0  0  0  0  0  0  0  0  0  0
    5.6094   -1.4756    1.8962 H   0  0  0  0  0  0  0  0  0  0  0  0
    6.7400   -1.4186    0.5380 H   0  0  0  0  0  0  0  0  0  0  0  0
    6.3023    0.0239   -1.4299 H   0  0  0  0  0  0  0  0  0  0  0  0
    4.9577    1.1621   -1.4602 H   0  0  0  0  0  0  0  0  0  0  0  0
    4.6529   -0.5699   -1.6869 H   0  0  0  0  0  0  0  0  0  0  0  0
   -3.7768   -0.6915   -1.2589 H   0  0  0  0  0  0  0  0  0  0  0  0
    0.0105   -2.3422   -3.3787 H   0  0  0  0  0  0  0  0  0  0  0  0
    1.1888   -1.1453   -2.7754 H   0  0  0  0  0  0  0  0  0  0  0  0
    0.0480   -0.6891   -4.0780 H   0  0  0  0  0  0  0  0  0  0  0  0
   -4.7480    2.3385    0.2808 H   0  0  0  0  0  0  0  0  0  0  0  0
   -7.0433    1.5804   -0.2519 H   0  0  0  0  0  0  0  0  0  0  0  0
   -6.2517   -2.1919    1.6641 H   0  0  0  0  0  0  0  0  0  0  0  0
  1  2  1  0
  2  3  1  0
  3  4  1  0
  4  5  1  0
  5  6  1  0
  6  7  1  0
  6  8  1  0
  2  9  2  0
  9 10  1  0
 10 11  2  0
 11 12  1  0
 12 13  2  0
 13 14  1  0
 14 15  1  0
 11 16  1  0
 16 17  2  3
 17 18  1  0
 18 19  2  0
 19 20  1  0
 20 21  2  0
 21 22  1  0
 21 23  1  0
 23 24  2  0
 24 25  1  0
 16  1  1  0
 24 18  1  0
 14 10  1  0
  1 26  1  0
  3 27  1  0
  4 28  1  0
  4 29  1  0
  5 30  1  0
  5 31  1  0
  6 32  1  0
  7 33  1  0
  7 34  1  0
  7 35  1  0
  8 36  1  0
  8 37  1  0
  8 38  1  0
 12 39  1  0
 15 40  1  0
 15 41  1  0
 15 42  1  0
 19 43  1  0
 20 44  1  0
 23 45  1  0
M  END
>  <ScrubInfo>  (3) 
{"isomerGroup": 0, "isomerId": 2, "confId": 0, "nr_conformers:": 1, "nr_isomers:": 9}

$$$$
_i3
     RDKit          3D

 45 47  0  0  0  0  0  0  0  0999 V2000
    0.4936    1.9293    0.4527 N   0  0  0  0  0  0  0  0  0  0  0  0
    0.9089    0.6402    0.7065 C   0  0  0  0  0  0  0  0  0  0  0  0
    2.0630    0.4778    1.2647 N   0  0  0  0  0  0  0  0  0  0  0  0
    2.5267   -0.8783    1.5551 C   0  0  0  0  0  0  0  0  0  0  0  0
    3.2575   -1.4862    0.3549 C   0  0  0  0  0  0  0  0  0  0  0  0
    4.7124   -1.0073    0.1725 C   0  0  0  0  0  0  0  0  0  0  0  0
    5.3787   -1.8097   -0.9495 C   0  0  0  0  0  0  0  0  0  0  0  0
    4.8222    0.4861   -0.1340 C   0  0  0  0  0  0  0  0  0  0  0  0
    0.1297   -0.4566    0.3698 N   0  0  0  0  0  0  0  0  0  0  0  0
   -1.0338   -0.2613   -0.1892 C   0  0  0  0  0  0  0  0  0  0  0  0
   -1.8502   -1.3069   -0.5479 N   0  0  0  0  0  0  0  0  0  0  0  0
   -3.2297   -1.3902   -0.2166 C   0  0  0  0  0  0  0  0  0  0  0  0
   -4.0857   -1.8935   -1.2113 C   0  0  0  0  0  0  0  0  0  0  0  0
   -5.4506   -2.0627   -0.9686 C   0  0  0  0  0  0  0  0  0  0  0  0
   -5.9706   -1.7588    0.2857 C   0  0  0  0  0  0  0  0  0  0  0  0
   -7.6507   -1.9696    0.5864 Cl  0  0  0  0  0  0  0  0  0  0  0  0
   -5.1372   -1.3036    1.3030 C   0  0  0  0  0  0  0  0  0  0  0  0
   -3.7696   -1.1355    1.0605 C   0  0  0  0  0  0  0  0  0  0  0  0
   -2.7915   -0.6552    2.4023 Cl  0  0  0  0  0  0  0  0  0  0  0  0
   -1.4906    1.0739   -0.5079 C   0  0  0  0  0  0  0  0  0  0  0  0
   -2.5846    1.6849   -1.1397 C   0  0  0  0  0  0  0  0  0  0  0  0
   -2.4823    3.0235   -1.1620 N   0  0  0  0  0  0  0  0  0  0  0  0
   -1.3008    3.2683   -0.5425 N   0  0  0  0  0  0  0  0  0  0  0  0
   -0.8567    4.6298   -0.3874 C   0  0  0  0  0  0  0  0  0  0  0  0
   -0.6855    2.1221   -0.1554 C   0  0  0  0  0  0  0  0  0  0  0  0
    1.1501    2.6460    0.7311 H   0  0  0  0  0  0  0  0  0  0  0  0
    1.7013   -1.5319    1.8631 H   0  0  0  0  0  0  0  0  0  0  0  0
    3.1993   -0.8360    2.4197 H   0  0  0  0  0  0  0  0  0  0  0  0
    3.2790   -2.5737    0.5050 H   0  0  0  0  0  0  0  0  0  0  0  0
    2.6901   -1.3119   -0.5677 H   0  0  0  0  0  0  0  0  0  0  0  0
    5.2660   -1.2077    1.0986 H   0  0  0  0  0  0  0  0  0  0  0  0
    6.4287   -1.5205   -1.0652 H   0  0  0  0  0  0  0  0  0  0  0  0
    4.8742   -1.6465   -1.9081 H   0  0  0  0  0  0  0  0  0  0  0  0
    5.3529   -2.8824   -0.7303 H   0  0  0  0  0  0  0  0  0  0  0  0
    4.5258    1.0916    0.7273 H   0  0  0  0  0  0  0  0  0  0  0  0
    5.8558    0.7594   -0.3732 H   0  0  0  0  0  0  0  0  0  0  0  0
    4.1941    0.7650   -0.9868 H   0  0  0  0  0  0  0  0  0  0  0  0
   -1.3978   -2.1702   -0.2501 H   0  0  0  0  0  0  0  0  0  0  0  0
   -3.6886   -2.1385   -2.1952 H   0  0  0  0  0  0  0  0  0  0  0  0
   -6.0979   -2.4336   -1.7597 H   0  0  0  0  0  0  0  0  0  0  0  0
   -5.5478   -1.0930    2.2874 H   0  0  0  0  0  0  0  0  0  0  0  0
   -3.4548    1.2271   -1.5904 H   0  0  0  0  0  0  0  0  0  0  0  0
   -1.6344    5.1892    0.1388 H   0  0  0  0  0  0  0  0  0  0  0  0
    0.0699    4.6560    0.1898 H   0  0  0  0  0  0  0  0  0  0  0  0
   -0.6884    5.0514   -1.3814 H   0  0  0  0  0  0  0  0  0  0  0  0
  1  2  1  0
  2  3  2  3
  3  4  1  0
  4  5  1  0
  5  6  1  0
  6  7  1  0
  6  8  1  0
  2  9  1  0
  9 10  2  0
 10 11  1  0
 11 12  1  0
 12 13  2  0
 13 14  1  0
 14 15  2  0
 15 16  1  0
 15 17  1  0
 17 18  2  0
 18 19  1  0
 10 20  1  0
 20 21  1  0
 21 22  2  0
 22 23  1  0
 23 24  1  0
 23 25  1  0
 25  1  1  0
 18 12  1  0
 25 20  2  0
  1 26  1  0
  4 27  1  0
  4 28  1  0
  5 29  1  0
  5 30  1  0
  6 31  1  0
  7 32  1  0
  7 33  1  0
  7 34  1  0
  8 35  1  0
  8 36  1  0
  8 37  1  0
 11 38  1  0
 13 39  1  0
 14 40  1  0
 17 41  1  0
 21 42  1  0
 24 43  1  0
 24 44  1  0
 24 45  1  0
M  END
>  <ScrubInfo>  (4) 
{"isomerGroup": 0, "isomerId": 3, "confId": 0, "nr_conformers:": 1, "nr_isomers:": 9}

$$$$
_i4
     RDKit          3D

 45 47  0  0  0  0  0  0  0  0999 V2000
   -2.8772    2.8955    0.5696 N   0  0  0  0  0  0  0  0  0  0  0  0
   -3.0168    1.5389    0.2953 C   0  0  0  0  0  0  0  0  0  0  0  0
   -1.8605    0.8600    0.3493 C   0  0  0  0  0  0  0  0  0  0  0  0
   -1.3621   -0.4950    0.1528 C   0  0  0  0  0  0  0  0  0  0  0  0
   -1.9902   -1.5996   -0.0789 N   0  0  0  0  0  0  0  0  0  0  0  0
   -3.3880   -1.6381   -0.1540 C   0  0  0  0  0  0  0  0  0  0  0  0
   -3.9828   -1.6373   -1.4219 C   0  0  0  0  0  0  0  0  0  0  0  0
   -5.3708   -1.7094   -1.5595 C   0  0  0  0  0  0  0  0  0  0  0  0
   -6.1733   -1.7987   -0.4241 C   0  0  0  0  0  0  0  0  0  0  0  0
   -7.8830   -1.8816   -0.5936 Cl  0  0  0  0  0  0  0  0  0  0  0  0
   -5.6035   -1.8216    0.8464 C   0  0  0  0  0  0  0  0  0  0  0  0
   -4.2144   -1.7490    0.9797 C   0  0  0  0  0  0  0  0  0  0  0  0
   -3.5509   -1.7752    2.5759 Cl  0  0  0  0  0  0  0  0  0  0  0  0
    0.0006   -0.5979    0.2205 N   0  0  0  0  0  0  0  0  0  0  0  0
    0.7798    0.3949    0.5205 C   0  0  0  0  0  0  0  0  0  0  0  0
    2.1339    0.2294    0.5743 N   0  0  0  0  0  0  0  0  0  0  0  0
    2.7458   -1.0736    0.7298 C   0  0  0  0  0  0  0  0  0  0  0  0
    4.2697   -0.9694    0.6269 C   0  0  0  0  0  0  0  0  0  0  0  0
    4.7986   -0.4450   -0.7236 C   0  0  0  0  0  0  0  0  0  0  0  0
    6.3236   -0.3203   -0.6669 C   0  0  0  0  0  0  0  0  0  0  0  0
    4.3972   -1.3403   -1.8965 C   0  0  0  0  0  0  0  0  0  0  0  0
    0.3652    1.6663    0.8117 N   0  0  0  0  0  0  0  0  0  0  0  0
   -0.8968    1.9076    0.7365 C   0  0  0  0  0  0  0  0  0  0  0  0
   -1.5656    3.1107    0.9681 N   0  0  0  0  0  0  0  0  0  0  0  0
   -0.9370    4.3825    0.6657 C   0  0  0  0  0  0  0  0  0  0  0  0
   -3.6009    3.2594    1.1943 H   0  0  0  0  0  0  0  0  0  0  0  0
   -4.0052    1.1657    0.0746 H   0  0  0  0  0  0  0  0  0  0  0  0
   -3.3526   -1.5881   -2.3075 H   0  0  0  0  0  0  0  0  0  0  0  0
   -5.8142   -1.7054   -2.5521 H   0  0  0  0  0  0  0  0  0  0  0  0
   -6.2343   -1.9014    1.7274 H   0  0  0  0  0  0  0  0  0  0  0  0
    2.5832    0.9917    1.0655 H   0  0  0  0  0  0  0  0  0  0  0  0
    2.4862   -1.4762    1.7161 H   0  0  0  0  0  0  0  0  0  0  0  0
    2.3637   -1.7774   -0.0171 H   0  0  0  0  0  0  0  0  0  0  0  0
    4.6316   -0.3112    1.4279 H   0  0  0  0  0  0  0  0  0  0  0  0
    4.6971   -1.9611    0.8236 H   0  0  0  0  0  0  0  0  0  0  0  0
    4.3921    0.5578   -0.9037 H   0  0  0  0  0  0  0  0  0  0  0  0
    6.7158    0.0897   -1.6037 H   0  0  0  0  0  0  0  0  0  0  0  0
    6.7965   -1.2940   -0.4990 H   0  0  0  0  0  0  0  0  0  0  0  0
    6.6295    0.3501    0.1432 H   0  0  0  0  0  0  0  0  0  0  0  0
    4.7212   -2.3741   -1.7361 H   0  0  0  0  0  0  0  0  0  0  0  0
    4.8503   -0.9854   -2.8286 H   0  0  0  0  0  0  0  0  0  0  0  0
    3.3132   -1.3404   -2.0448 H   0  0  0  0  0  0  0  0  0  0  0  0
    0.0203    4.4733    1.1890 H   0  0  0  0  0  0  0  0  0  0  0  0
   -1.5755    5.2098    0.9921 H   0  0  0  0  0  0  0  0  0  0  0  0
   -0.7597    4.4832   -0.4102 H   0  0  0  0  0  0  0  0  0  0  0  0
  1  2  1  0
  2  3  2  0
  3  4  1  0
  4  5  2  3
  5  6  1  0
  6  7  2  0
  7  8  1  0
  8  9  2  0
  9 10  1  0
  9 11  1  0
 11 12  2  0
 12 13  1  0
  4 14  1  0
 14 15  2  0
 15 16  1  0
 16 17  1  0
 17 18  1  0
 18 19  1  0
 19 20  1  0
 19 21  1  0
 15 22  1  0
 22 23  2  0
 23 24  1  0
 24 25  1  0
 24  1  1  0
 23  3  1  0
 12  6  1  0
  1 26  1  0
  2 27  1  0
  7 28  1  0
  8 29  1  0
 11 30  1  0
 16 31  1  0
 17 32  1  0
 17 33  1  0
 18 34  1  0
 18 35  1  0
 19 36  1  0
 20 37  1  0
 20 38  1  0
 20 39  1  0
 21 40  1  0
 21 41  1  0
 21 42  1  0
 25 43  1  0
 25 44  1  0
 25 45  1  0
M  END
>  <ScrubInfo>  (5) 
{"isomerGroup": 0, "isomerId": 4, "confId": 0, "nr_conformers:": 1, "nr_isomers:": 9}

$$$$
_i5
     RDKit          3D

 45 47  0  0  0  0  0  0  0  0999 V2000
   -0.1826    1.6296    1.3012 N   0  0  0  0  0  0  0  0  0  0  0  0
    0.0980    0.2942    1.1212 C   0  0  0  0  0  0  0  0  0  0  0  0
   -0.8985   -0.5678    1.4799 N   0  0  0  0  0  0  0  0  0  0  0  0
   -2.2832   -0.4158    1.0514 C   0  0  0  0  0  0  0  0  0  0  0  0
   -2.4168   -0.6660   -0.4530 C   0  0  0  0  0  0  0  0  0  0  0  0
   -3.8428   -0.4390   -0.9872 C   0  0  0  0  0  0  0  0  0  0  0  0
   -4.8548   -1.4144   -0.3847 C   0  0  0  0  0  0  0  0  0  0  0  0
   -3.8511   -0.5639   -2.5129 C   0  0  0  0  0  0  0  0  0  0  0  0
    1.2155   -0.1934    0.6536 N   0  0  0  0  0  0  0  0  0  0  0  0
    2.2333    0.6814    0.2933 C   0  0  0  0  0  0  0  0  0  0  0  0
    3.3681    0.3077   -0.2069 N   0  0  0  0  0  0  0  0  0  0  0  0
    3.5892   -1.0718   -0.3662 C   0  0  0  0  0  0  0  0  0  0  0  0
    3.3789   -1.6395   -1.6294 C   0  0  0  0  0  0  0  0  0  0  0  0
    3.5988   -3.0018   -1.8451 C   0  0  0  0  0  0  0  0  0  0  0  0
    4.0429   -3.8037   -0.7958 C   0  0  0  0  0  0  0  0  0  0  0  0
    4.3108   -5.4825   -1.0619 Cl  0  0  0  0  0  0  0  0  0  0  0  0
    4.2761   -3.2583    0.4640 C   0  0  0  0  0  0  0  0  0  0  0  0
    4.0550   -1.8949    0.6756 C   0  0  0  0  0  0  0  0  0  0  0  0
    4.3800   -1.2552    2.2500 Cl  0  0  0  0  0  0  0  0  0  0  0  0
    1.9931    2.0873    0.4886 C   0  0  0  0  0  0  0  0  0  0  0  0
    2.7222    3.2692    0.3045 C   0  0  0  0  0  0  0  0  0  0  0  0
    2.0258    4.3581    0.6722 N   0  0  0  0  0  0  0  0  0  0  0  0
    0.8420    3.8550    1.1039 N   0  0  0  0  0  0  0  0  0  0  0  0
   -0.1690    4.7599    1.5869 C   0  0  0  0  0  0  0  0  0  0  0  0
    0.7923    2.5022    0.9932 C   0  0  0  0  0  0  0  0  0  0  0  0
   -0.9810    1.8602    1.8760 H   0  0  0  0  0  0  0  0  0  0  0  0
   -0.5706   -1.5209    1.3320 H   0  0  0  0  0  0  0  0  0  0  0  0
   -2.8812   -1.1431    1.6096 H   0  0  0  0  0  0  0  0  0  0  0  0
   -2.6652    0.5766    1.3137 H   0  0  0  0  0  0  0  0  0  0  0  0
   -1.7310    0.0022   -0.9900 H   0  0  0  0  0  0  0  0  0  0  0  0
   -2.0892   -1.6884   -0.6835 H   0  0  0  0  0  0  0  0  0  0  0  0
   -4.1554    0.5816   -0.7325 H   0  0  0  0  0  0  0  0  0  0  0  0
   -4.5526   -2.4537   -0.5517 H   0  0  0  0  0  0  0  0  0  0  0  0
   -4.9652   -1.2595    0.6928 H   0  0  0  0  0  0  0  0  0  0  0  0
   -5.8440   -1.2741   -0.8340 H   0  0  0  0  0  0  0  0  0  0  0  0
   -3.1634    0.1577   -2.9665 H   0  0  0  0  0  0  0  0  0  0  0  0
   -3.5488   -1.5674   -2.8314 H   0  0  0  0  0  0  0  0  0  0  0  0
   -4.8509   -0.3673   -2.9144 H   0  0  0  0  0  0  0  0  0  0  0  0
    3.0367   -1.0102   -2.4472 H   0  0  0  0  0  0  0  0  0  0  0  0
    3.4241   -3.4258   -2.8303 H   0  0  0  0  0  0  0  0  0  0  0  0
    4.6310   -3.8866    1.2758 H   0  0  0  0  0  0  0  0  0  0  0  0
    3.7292    3.3867   -0.0751 H   0  0  0  0  0  0  0  0  0  0  0  0
   -0.3735    5.4986    0.8078 H   0  0  0  0  0  0  0  0  0  0  0  0
    0.2100    5.2489    2.4878 H   0  0  0  0  0  0  0  0  0  0  0  0
   -1.0822    4.2079    1.8194 H   0  0  0  0  0  0  0  0  0  0  0  0
  1  2  1  0
  2  3  1  0
  3  4  1  0
  4  5  1  0
  5  6  1  0
  6  7  1  0
  6  8  1  0
  2  9  2  0
  9 10  1  0
 10 11  2  3
 11 12  1  0
 12 13  2  0
 13 14  1  0
 14 15  2  0
 15 16  1  0
 15 17  1  0
 17 18  2  0
 18 19  1  0
 10 20  1  0
 20 21  1  0
 21 22  2  0
 22 23  1  0
 23 24  1  0
 23 25  1  0
 25  1  1  0
 18 12  1  0
 25 20  2  0
  1 26  1  0
  3 27  1  0
  4 28  1  0
  4 29  1  0
  5 30  1  0
  5 31  1  0
  6 32  1  0
  7 33  1  0
  7 34  1  0
  7 35  1  0
  8 36  1  0
  8 37  1  0
  8 38  1  0
 13 39  1  0
 14 40  1  0
 17 41  1  0
 21 42  1  0
 24 43  1  0
 24 44  1  0
 24 45  1  0
M  END
>  <ScrubInfo>  (6) 
{"isomerGroup": 0, "isomerId": 5, "confId": 0, "nr_conformers:": 1, "nr_isomers:": 9}

$$$$
_i6
     RDKit          3D

 45 47  0  0  0  0  0  0  0  0999 V2000
    2.3156    2.9350    0.7361 N   0  0  0  0  0  0  0  0  0  0  0  0
    2.8316    1.8034    0.1138 C   0  0  0  0  0  0  0  0  0  0  0  0
    1.8830    0.9412   -0.2761 C   0  0  0  0  0  0  0  0  0  0  0  0
    1.7720   -0.3652   -0.9224 C   0  0  0  0  0  0  0  0  0  0  0  0
    2.8448   -1.1109   -1.3680 N   0  0  0  0  0  0  0  0  0  0  0  0
    4.0640   -1.2374   -0.6602 C   0  0  0  0  0  0  0  0  0  0  0  0
    5.2477   -1.0955   -1.4026 C   0  0  0  0  0  0  0  0  0  0  0  0
    6.4980   -1.2565   -0.8012 C   0  0  0  0  0  0  0  0  0  0  0  0
    6.5767   -1.5920    0.5470 C   0  0  0  0  0  0  0  0  0  0  0  0
    8.1159   -1.7887    1.2884 Cl  0  0  0  0  0  0  0  0  0  0  0  0
    5.4188   -1.7837    1.2949 C   0  0  0  0  0  0  0  0  0  0  0  0
    4.1673   -1.6237    0.6912 C   0  0  0  0  0  0  0  0  0  0  0  0
    2.7768   -1.9553    1.6631 Cl  0  0  0  0  0  0  0  0  0  0  0  0
    0.5807   -0.8593   -1.1177 N   0  0  0  0  0  0  0  0  0  0  0  0
   -0.5190   -0.1565   -0.6754 C   0  0  0  0  0  0  0  0  0  0  0  0
   -1.6308   -0.7800   -0.8495 N   0  0  0  0  0  0  0  0  0  0  0  0
   -2.8565   -0.1133   -0.4142 C   0  0  0  0  0  0  0  0  0  0  0  0
   -4.0345   -1.0395   -0.7275 C   0  0  0  0  0  0  0  0  0  0  0  0
   -5.4082   -0.4038   -0.4483 C   0  0  0  0  0  0  0  0  0  0  0  0
   -6.5204   -1.3437   -0.9201 C   0  0  0  0  0  0  0  0  0  0  0  0
   -5.6076   -0.0698    1.0307 C   0  0  0  0  0  0  0  0  0  0  0  0
   -0.5225    1.0944   -0.0995 N   0  0  0  0  0  0  0  0  0  0  0  0
    0.6296    1.6393    0.0836 C   0  0  0  0  0  0  0  0  0  0  0  0
    0.9306    2.8929    0.6178 N   0  0  0  0  0  0  0  0  0  0  0  0
    0.1134    3.4696    1.6685 C   0  0  0  0  0  0  0  0  0  0  0  0
    2.7646    3.8049    0.4399 H   0  0  0  0  0  0  0  0  0  0  0  0
    3.9017    1.7140   -0.0023 H   0  0  0  0  0  0  0  0  0  0  0  0
    2.5095   -2.0269   -1.6651 H   0  0  0  0  0  0  0  0  0  0  0  0
    5.1961   -0.8420   -2.4604 H   0  0  0  0  0  0  0  0  0  0  0  0
    7.4017   -1.1246   -1.3914 H   0  0  0  0  0  0  0  0  0  0  0  0
    5.4887   -2.0711    2.3410 H   0  0  0  0  0  0  0  0  0  0  0  0
   -2.8175    0.0830    0.6631 H   0  0  0  0  0  0  0  0  0  0  0  0
   -2.9912    0.8347   -0.9488 H   0  0  0  0  0  0  0  0  0  0  0  0
   -3.9275   -1.9697   -0.1541 H   0  0  0  0  0  0  0  0  0  0  0  0
   -3.9832   -1.3265   -1.7864 H   0  0  0  0  0  0  0  0  0  0  0  0
   -5.4887    0.5269   -1.0241 H   0  0  0  0  0  0  0  0  0  0  0  0
   -7.5053   -0.8904   -0.7652 H   0  0  0  0  0  0  0  0  0  0  0  0
   -6.4952   -2.2942   -0.3763 H   0  0  0  0  0  0  0  0  0  0  0  0
   -6.4193   -1.5612   -1.9887 H   0  0  0  0  0  0  0  0  0  0  0  0
   -5.4695   -0.9556    1.6599 H   0  0  0  0  0  0  0  0  0  0  0  0
   -4.9042    0.6991    1.3639 H   0  0  0  0  0  0  0  0  0  0  0  0
   -6.6170    0.3168    1.2087 H   0  0  0  0  0  0  0  0  0  0  0  0
    0.1779    2.8721    2.5837 H   0  0  0  0  0  0  0  0  0  0  0  0
    0.4460    4.4881    1.8935 H   0  0  0  0  0  0  0  0  0  0  0  0
   -0.9347    3.5217    1.3568 H   0  0  0  0  0  0  0  0  0  0  0  0
  1  2  1  0
  2  3  2  0
  3  4  1  0
  4  5  1  0
  5  6  1  0
  6  7  2  0
  7  8  1  0
  8  9  2  0
  9 10  1  0
  9 11  1  0
 11 12  2  0
 12 13  1  0
  4 14  2  0
 14 15  1  0
 15 16  2  3
 16 17  1  0
 17 18  1  0
 18 19  1  0
 19 20  1  0
 19 21  1  0
 15 22  1  0
 22 23  2  0
 23 24  1  0
 24 25  1  0
 24  1  1  0
 23  3  1  0
 12  6  1  0
  1 26  1  0
  2 27  1  0
  5 28  1  0
  7 29  1  0
  8 30  1  0
 11 31  1  0
 17 32  1  0
 17 33  1  0
 18 34  1  0
 18 35  1  0
 19 36  1  0
 20 37  1  0
 20 38  1  0
 20 39  1  0
 21 40  1  0
 21 41  1  0
 21 42  1  0
 25 43  1  0
 25 44  1  0
 25 45  1  0
M  END
>  <ScrubInfo>  (7) 
{"isomerGroup": 0, "isomerId": 6, "confId": 0, "nr_conformers:": 1, "nr_isomers:": 9}

$$$$
_i7
     RDKit          3D

 45 47  0  0  0  0  0  0  0  0999 V2000
   -2.5938    2.5530   -0.1690 N   0  0  0  0  0  0  0  0  0  0  0  0
   -3.0178    1.2390   -0.0056 C   0  0  0  0  0  0  0  0  0  0  0  0
   -2.0116    0.3598    0.1045 C   0  0  0  0  0  0  0  0  0  0  0  0
   -1.7819   -1.0920    0.2444 C   0  0  0  0  0  0  0  0  0  0  0  0
   -2.6471   -2.0554    0.3671 N   0  0  0  0  0  0  0  0  0  0  0  0
   -4.0240   -1.7949    0.4152 C   0  0  0  0  0  0  0  0  0  0  0  0
   -4.7680   -1.9268   -0.7637 C   0  0  0  0  0  0  0  0  0  0  0  0
   -6.1485   -1.7135   -0.7628 C   0  0  0  0  0  0  0  0  0  0  0  0
   -6.7956   -1.3810    0.4255 C   0  0  0  0  0  0  0  0  0  0  0  0
   -8.4947   -1.1133    0.4240 Cl  0  0  0  0  0  0  0  0  0  0  0  0
   -6.0793   -1.2640    1.6139 C   0  0  0  0  0  0  0  0  0  0  0  0
   -4.6987   -1.4778    1.6089 C   0  0  0  0  0  0  0  0  0  0  0  0
   -3.8460   -1.3200    3.1044 Cl  0  0  0  0  0  0  0  0  0  0  0  0
   -0.4507   -1.4072    0.2281 N   0  0  0  0  0  0  0  0  0  0  0  0
    0.6065   -0.5491    0.1225 C   0  0  0  0  0  0  0  0  0  0  0  0
    1.8010   -1.0445    0.1082 N   0  0  0  0  0  0  0  0  0  0  0  0
    2.9143   -0.0985   -0.0004 C   0  0  0  0  0  0  0  0  0  0  0  0
    4.2178   -0.9007    0.0126 C   0  0  0  0  0  0  0  0  0  0  0  0
    5.4808   -0.0217    0.0456 C   0  0  0  0  0  0  0  0  0  0  0  0
    6.7228   -0.9032    0.1979 C   0  0  0  0  0  0  0  0  0  0  0  0
    5.6175    0.8515   -1.2024 C   0  0  0  0  0  0  0  0  0  0  0  0
    0.4218    0.8145    0.0354 N   0  0  0  0  0  0  0  0  0  0  0  0
   -0.7987    1.2519    0.0427 C   0  0  0  0  0  0  0  0  0  0  0  0
   -1.2154    2.5835   -0.0185 N   0  0  0  0  0  0  0  0  0  0  0  0
   -0.4452    3.5773   -0.7416 C   0  0  0  0  0  0  0  0  0  0  0  0
   -3.1213    3.2237    0.3953 H   0  0  0  0  0  0  0  0  0  0  0  0
   -4.0803    1.0505    0.0126 H   0  0  0  0  0  0  0  0  0  0  0  0
   -4.2648   -2.2039   -1.6874 H   0  0  0  0  0  0  0  0  0  0  0  0
   -6.7100   -1.8171   -1.6882 H   0  0  0  0  0  0  0  0  0  0  0  0
   -6.5912   -1.0138    2.5391 H   0  0  0  0  0  0  0  0  0  0  0  0
   -0.2074   -2.3824    0.3159 H   0  0  0  0  0  0  0  0  0  0  0  0
    2.9108    0.5990    0.8458 H   0  0  0  0  0  0  0  0  0  0  0  0
    2.8372    0.4676   -0.9353 H   0  0  0  0  0  0  0  0  0  0  0  0
    4.2171   -1.5570    0.8932 H   0  0  0  0  0  0  0  0  0  0  0  0
    4.2446   -1.5642   -0.8618 H   0  0  0  0  0  0  0  0  0  0  0  0
    5.4278    0.6374    0.9214 H   0  0  0  0  0  0  0  0  0  0  0  0
    7.6290   -0.2916    0.2628 H   0  0  0  0  0  0  0  0  0  0  0  0
    6.8337   -1.5845   -0.6527 H   0  0  0  0  0  0  0  0  0  0  0  0
    6.6630   -1.5062    1.1101 H   0  0  0  0  0  0  0  0  0  0  0  0
    5.6067    0.2452   -2.1144 H   0  0  0  0  0  0  0  0  0  0  0  0
    6.5575    1.4137   -1.1818 H   0  0  0  0  0  0  0  0  0  0  0  0
    4.8059    1.5824   -1.2682 H   0  0  0  0  0  0  0  0  0  0  0  0
    0.5868    3.6062   -0.3774 H   0  0  0  0  0  0  0  0  0  0  0  0
   -0.8775    4.5729   -0.5977 H   0  0  0  0  0  0  0  0  0  0  0  0
   -0.4330    3.3550   -1.8137 H   0  0  0  0  0  0  0  0  0  0  0  0
  1  2  1  0
  2  3  2  0
  3  4  1  0
  4  5  2  3
  5  6  1  0
  6  7  2  0
  7  8  1  0
  8  9  2  0
  9 10  1  0
  9 11  1  0
 11 12  2  0
 12 13  1  0
  4 14  1  0
 14 15  1  0
 15 16  2  3
 16 17  1  0
 17 18  1  0
 18 19  1  0
 19 20  1  0
 19 21  1  0
 15 22  1  0
 22 23  2  0
 23 24  1  0
 24 25  1  0
 24  1  1  0
 23  3  1  0
 12  6  1  0
  1 26  1  0
  2 27  1  0
  7 28  1  0
  8 29  1  0
 11 30  1  0
 14 31  1  0
 17 32  1  0
 17 33  1  0
 18 34  1  0
 18 35  1  0
 19 36  1  0
 20 37  1  0
 20 38  1  0
 20 39  1  0
 21 40  1  0
 21 41  1  0
 21 42  1  0
 25 43  1  0
 25 44  1  0
 25 45  1  0
M  END
>  <ScrubInfo>  (8) 
{"isomerGroup": 0, "isomerId": 7, "confId": 0, "nr_conformers:": 1, "nr_isomers:": 9}

$$$$
_i8
     RDKit          3D

 45 47  0  0  0  0  0  0  0  0999 V2000
    0.5185    1.8672    0.6750 N   0  0  0  0  0  0  0  0  0  0  0  0
    1.0609    0.6248    0.9318 C   0  0  0  0  0  0  0  0  0  0  0  0
    2.3110    0.5629    1.2396 N   0  0  0  0  0  0  0  0  0  0  0  0
    2.9333   -0.7242    1.5341 C   0  0  0  0  0  0  0  0  0  0  0  0
    3.3753   -1.4394    0.2552 C   0  0  0  0  0  0  0  0  0  0  0  0
    4.6937   -0.9197   -0.3540 C   0  0  0  0  0  0  0  0  0  0  0  0
    5.1097   -1.8221   -1.5199 C   0  0  0  0  0  0  0  0  0  0  0  0
    4.6062    0.5282   -0.8359 C   0  0  0  0  0  0  0  0  0  0  0  0
    0.1479   -0.4042    0.8065 N   0  0  0  0  0  0  0  0  0  0  0  0
   -1.1940   -0.3945    0.4801 C   0  0  0  0  0  0  0  0  0  0  0  0
   -1.8676   -1.5048    0.4235 N   0  0  0  0  0  0  0  0  0  0  0  0
   -3.2373   -1.5395    0.1333 C   0  0  0  0  0  0  0  0  0  0  0  0
   -3.6369   -1.7767   -1.1877 C   0  0  0  0  0  0  0  0  0  0  0  0
   -4.9917   -1.8628   -1.5169 C   0  0  0  0  0  0  0  0  0  0  0  0
   -5.9559   -1.7279   -0.5197 C   0  0  0  0  0  0  0  0  0  0  0  0
   -7.6235   -1.8347   -0.9278 Cl  0  0  0  0  0  0  0  0  0  0  0  0
   -5.5812   -1.5128    0.8041 C   0  0  0  0  0  0  0  0  0  0  0  0
   -4.2254   -1.4276    1.1296 C   0  0  0  0  0  0  0  0  0  0  0  0
   -3.7990   -1.1690    2.7850 Cl  0  0  0  0  0  0  0  0  0  0  0  0
   -1.6653    0.9562    0.2263 C   0  0  0  0  0  0  0  0  0  0  0  0
   -2.8665    1.5829   -0.1534 C   0  0  0  0  0  0  0  0  0  0  0  0
   -2.7495    2.9143   -0.2648 N   0  0  0  0  0  0  0  0  0  0  0  0
   -1.4593    3.1524    0.0591 N   0  0  0  0  0  0  0  0  0  0  0  0
   -0.9675    4.5071    0.0482 C   0  0  0  0  0  0  0  0  0  0  0  0
   -0.7815    2.0074    0.3422 C   0  0  0  0  0  0  0  0  0  0  0  0
    1.1775    2.6323    0.7604 H   0  0  0  0  0  0  0  0  0  0  0  0
    3.7979   -0.5526    2.1855 H   0  0  0  0  0  0  0  0  0  0  0  0
    2.2568   -1.3662    2.1106 H   0  0  0  0  0  0  0  0  0  0  0  0
    3.5173   -2.4983    0.5084 H   0  0  0  0  0  0  0  0  0  0  0  0
    2.5789   -1.4054   -0.4983 H   0  0  0  0  0  0  0  0  0  0  0  0
    5.4799   -0.9790    0.4094 H   0  0  0  0  0  0  0  0  0  0  0  0
    6.0695   -1.5010   -1.9384 H   0  0  0  0  0  0  0  0  0  0  0  0
    4.3653   -1.8014   -2.3233 H   0  0  0  0  0  0  0  0  0  0  0  0
    5.2233   -2.8598   -1.1887 H   0  0  0  0  0  0  0  0  0  0  0  0
    3.7610    0.6708   -1.5177 H   0  0  0  0  0  0  0  0  0  0  0  0
    5.5199    0.8176   -1.3668 H   0  0  0  0  0  0  0  0  0  0  0  0
    4.4949    1.2206    0.0034 H   0  0  0  0  0  0  0  0  0  0  0  0
    0.4906   -1.3352    0.9812 H   0  0  0  0  0  0  0  0  0  0  0  0
   -2.8845   -1.8975   -1.9638 H   0  0  0  0  0  0  0  0  0  0  0  0
   -5.2853   -2.0410   -2.5486 H   0  0  0  0  0  0  0  0  0  0  0  0
   -6.3374   -1.4165    1.5784 H   0  0  0  0  0  0  0  0  0  0  0  0
   -3.8327    1.1480   -0.3650 H   0  0  0  0  0  0  0  0  0  0  0  0
   -1.7602    5.1754    0.3948 H   0  0  0  0  0  0  0  0  0  0  0  0
   -0.1072    4.5898    0.7160 H   0  0  0  0  0  0  0  0  0  0  0  0
   -0.6801    4.7560   -0.9761 H   0  0  0  0  0  0  0  0  0  0  0  0
  1  2  1  0
  2  3  2  3
  3  4  1  0
  4  5  1  0
  5  6  1  0
  6  7  1  0
  6  8  1  0
  2  9  1  0
  9 10  1  0
 10 11  2  3
 11 12  1  0
 12 13  2  0
 13 14  1  0
 14 15  2  0
 15 16  1  0
 15 17  1  0
 17 18  2  0
 18 19  1  0
 10 20  1  0
 20 21  1  0
 21 22  2  0
 22 23  1  0
 23 24  1  0
 23 25  1  0
 25  1  1  0
 18 12  1  0
 25 20  2  0
  1 26  1  0
  4 27  1  0
  4 28  1  0
  5 29  1  0
  5 30  1  0
  6 31  1  0
  7 32  1  0
  7 33  1  0
  7 34  1  0
  8 35  1  0
  8 36  1  0
  8 37  1  0
  9 38  1  0
 13 39  1  0
 14 40  1  0
 17 41  1  0
 21 42  1  0
 24 43  1  0
 24 44  1  0
 24 45  1  0
M  END
>  <ScrubInfo>  (9) 
{"isomerGroup": 0, "isomerId": 8, "confId": 0, "nr_conformers:": 1, "nr_isomers:": 9}

$$$$
