_i0
     RDKit          3D

 45 47  0  0  0  0  0  0  0  0999 V2000
    3.7918   -1.4049    1.3082 C   0  0  0  0  0  0  0  0  0  0  0  0
    3.2045   -0.9796   -0.0406 C   0  0  0  0  0  0  0  0  0  0  0  0
    4.0069   -1.6144   -1.1766 C   0  0  0  0  0  0  0  0  0  0  0  0
    3.1706    0.5596   -0.1294 C   0  0  0  0  0  0  0  0  0  0  0  0
    2.5726    1.1375   -1.4189 C   0  0  0  0  0  0  0  0  0  0  0  0
    1.2113    0.6984   -1.6666 N   0  0  0  0  0  0  0  0  0  0  0  0
    0.2289    1.1647   -0.8072 C   0  0  0  0  0  0  0  0  0  0  0  0
   -0.7608    0.2860   -0.5660 N   0  0  0  0  0  0  0  0  0  0  0  0
   -1.7917    0.6030    0.2612 C   0  0  0  0  0  0  0  0  0  0  0  0
   -2.8267   -0.2987    0.5352 N   0  0  0  0  0  0  0  0  0  0  0  0
   -3.1121   -1.5988    0.0773 C   0  0  0  0  0  0  0  0  0  0  0  0
   -2.3656   -2.2805   -0.8868 C   0  0  0  0  0  0  0  0  0  0  0  0
   -2.7129   -3.5797   -1.2825 C   0  0  0  0  0  0  0  0  0  0  0  0
   -3.8145   -4.2210   -0.7180 C   0  0  0  0  0  0  0  0  0  0  0  0
   -4.5728   -3.5627    0.2440 C   0  0  0  0  0  0  0  0  0  0  0  0
   -4.2176   -2.2717    0.6280 C   0  0  0  0  0  0  0  0  0  0  0  0
   -4.9609   -1.6493    1.5588 F   0  0  0  0  0  0  0  0  0  0  0  0
   -1.7639    1.8773    0.8419 C   0  0  0  0  0  0  0  0  0  0  0  0
   -2.5469    2.6524    1.7234 C   0  0  0  0  0  0  0  0  0  0  0  0
   -2.0294    3.8646    1.9526 N   0  0  0  0  0  0  0  0  0  0  0  0
   -0.9029    3.8653    1.2018 N   0  0  0  0  0  0  0  0  0  0  0  0
   -0.0622    5.0357    1.1846 C   0  0  0  0  0  0  0  0  0  0  0  0
   -0.6985    2.6954    0.5231 C   0  0  0  0  0  0  0  0  0  0  0  0
    0.3245    2.3952   -0.2883 N   0  0  0  0  0  0  0  0  0  0  0  0
    3.7857   -2.4955    1.4088 H   0  0  0  0  0  0  0  0  0  0  0  0
    4.8256   -1.0602    1.4188 H   0  0  0  0  0  0  0  0  0  0  0  0
    3.2053   -0.9915    2.1356 H   0  0  0  0  0  0  0  0  0  0  0  0
    2.1795   -1.3665   -0.0863 H   0  0  0  0  0  0  0  0  0  0  0  0
    4.0751   -2.6997   -1.0445 H   0  0  0  0  0  0  0  0  0  0  0  0
    5.0258   -1.2144   -1.2148 H   0  0  0  0  0  0  0  0  0  0  0  0
    3.5329   -1.4367   -2.1466 H   0  0  0  0  0  0  0  0  0  0  0  0
    2.6143    0.9494    0.7326 H   0  0  0  0  0  0  0  0  0  0  0  0
    4.1930    0.9471   -0.0293 H   0  0  0  0  0  0  0  0  0  0  0  0
    3.1872    0.8376   -2.2747 H   0  0  0  0  0  0  0  0  0  0  0  0
    2.6302    2.2331   -1.3931 H   0  0  0  0  0  0  0  0  0  0  0  0
    1.0746   -0.3023   -1.7483 H   0  0  0  0  0  0  0  0  0  0  0  0
   -3.5146    0.0372    1.1997 H   0  0  0  0  0  0  0  0  0  0  0  0
   -1.5049   -1.8175   -1.3579 H   0  0  0  0  0  0  0  0  0  0  0  0
   -2.1169   -4.0874   -2.0376 H   0  0  0  0  0  0  0  0  0  0  0  0
   -4.0788   -5.2282   -1.0293 H   0  0  0  0  0  0  0  0  0  0  0  0
   -5.4348   -4.0408    0.6972 H   0  0  0  0  0  0  0  0  0  0  0  0
   -3.4756    2.3863    2.2110 H   0  0  0  0  0  0  0  0  0  0  0  0
   -0.6509    5.8761    0.8081 H   0  0  0  0  0  0  0  0  0  0  0  0
    0.2746    5.2319    2.2056 H   0  0  0  0  0  0  0  0  0  0  0  0
    0.8008    4.8684    0.5362 H   0  0  0  0  0  0  0  0  0  0  0  0
  1  2  1  0
  2  3  1  0
  2  4  1  0
  4  5  1  0
  5  6  1  0
  6  7  1  0
  7  8  2  0
  8  9  1  0
  9 10  1  0
 10 11  1  0
 11 12  2  0
 12 13  1  0
 13 14  2  0
 14 15  1  0
 15 16  2  0
 16 17  1  0
  9 18  2  0
 18 19  1  0
 19 20  2  0
 20 21  1  0
 21 22  1  0
 21 23  1  0
 23 24  2  0
 24  7  1  0
 16 11  1  0
 23 18  1  0
  1 25  1  0
  1 26  1  0
  1 27  1  0
  2 28  1  0
  3 29  1  0
  3 30  1  0
  3 31  1  0
  4 32  1  0
  4 33  1  0
  5 34  1  0
  5 35  1  0
  6 36  1  0
 10 37  1  0
 12 38  1  0
 13 39  1  0
 14 40  1  0
 15 41  1  0
 19 42  1  0
 22 43  1  0
 22 44  1  0
 22 45  1  0
M  END
>  <ScrubInfo>  (1) 
{"isomerGroup": 0, "isomerId": 0, "confId": 0, "nr_conformers:": 1, "nr_isomers:": 9}

$$$$
_i1
     RDKit          3D

 45 47  0  0  0  0  0  0  0  0999 V2000
    0.6341    0.4653    1.2338 N   0  0  0  0  0  0  0  0  0  0  0  0
    1.8568   -0.1552    1.0720 C   0  0  0  0  0  0  0  0  0  0  0  0
    3.0045    0.3941    1.6129 N   0  0  0  0  0  0  0  0  0  0  0  0
    4.2092    0.7011    0.9316 C   0  0  0  0  0  0  0  0  0  0  0  0
    5.3284    1.0339    1.7133 C   0  0  0  0  0  0  0  0  0  0  0  0
    6.5652    1.3180    1.1245 C   0  0  0  0  0  0  0  0  0  0  0  0
    6.7079    1.2705   -0.2600 C   0  0  0  0  0  0  0  0  0  0  0  0
    5.6136    0.9386   -1.0537 C   0  0  0  0  0  0  0  0  0  0  0  0
    4.3831    0.6556   -0.4608 C   0  0  0  0  0  0  0  0  0  0  0  0
    3.3567    0.3670   -1.2742 F   0  0  0  0  0  0  0  0  0  0  0  0
    1.8151   -1.3306    0.4314 C   0  0  0  0  0  0  0  0  0  0  0  0
    2.7498   -2.3859    0.0267 C   0  0  0  0  0  0  0  0  0  0  0  0
    2.1681   -3.3709   -0.6123 N   0  0  0  0  0  0  0  0  0  0  0  0
    0.8003   -3.0503   -0.6260 N   0  0  0  0  0  0  0  0  0  0  0  0
   -0.0742   -3.7621   -1.5252 C   0  0  0  0  0  0  0  0  0  0  0  0
    0.5081   -1.8198   -0.0592 C   0  0  0  0  0  0  0  0  0  0  0  0
   -0.6161   -1.1949    0.0442 N   0  0  0  0  0  0  0  0  0  0  0  0
   -0.5449    0.0177    0.6930 C   0  0  0  0  0  0  0  0  0  0  0  0
   -1.5924    0.7675    0.8060 N   0  0  0  0  0  0  0  0  0  0  0  0
   -2.8342    0.2594    0.2171 C   0  0  0  0  0  0  0  0  0  0  0  0
   -3.9350    1.2911    0.4755 C   0  0  0  0  0  0  0  0  0  0  0  0
   -5.3328    0.8239    0.0315 C   0  0  0  0  0  0  0  0  0  0  0  0
   -5.4181    0.5891   -1.4772 C   0  0  0  0  0  0  0  0  0  0  0  0
   -6.3830    1.8540    0.4543 C   0  0  0  0  0  0  0  0  0  0  0  0
    0.6093    1.4062    1.5935 H   0  0  0  0  0  0  0  0  0  0  0  0
    2.8049    1.0981    2.3183 H   0  0  0  0  0  0  0  0  0  0  0  0
    5.2480    1.0602    2.7982 H   0  0  0  0  0  0  0  0  0  0  0  0
    7.4184    1.5709    1.7502 H   0  0  0  0  0  0  0  0  0  0  0  0
    7.6686    1.4907   -0.7190 H   0  0  0  0  0  0  0  0  0  0  0  0
    5.7053    0.9005   -2.1351 H   0  0  0  0  0  0  0  0  0  0  0  0
    3.8224   -2.3115    0.2452 H   0  0  0  0  0  0  0  0  0  0  0  0
   -1.1085   -3.7346   -1.1677 H   0  0  0  0  0  0  0  0  0  0  0  0
    0.2230   -4.8129   -1.6046 H   0  0  0  0  0  0  0  0  0  0  0  0
   -0.0387   -3.3158   -2.5239 H   0  0  0  0  0  0  0  0  0  0  0  0
   -2.7077    0.1152   -0.8616 H   0  0  0  0  0  0  0  0  0  0  0  0
   -3.1174   -0.6943    0.6787 H   0  0  0  0  0  0  0  0  0  0  0  0
   -3.9593    1.5167    1.5501 H   0  0  0  0  0  0  0  0  0  0  0  0
   -3.6761    2.2321   -0.0275 H   0  0  0  0  0  0  0  0  0  0  0  0
   -5.5657   -0.1206    0.5394 H   0  0  0  0  0  0  0  0  0  0  0  0
   -4.7683   -0.2338   -1.7899 H   0  0  0  0  0  0  0  0  0  0  0  0
   -6.4394    0.3240   -1.7716 H   0  0  0  0  0  0  0  0  0  0  0  0
   -5.1278    1.4855   -2.0356 H   0  0  0  0  0  0  0  0  0  0  0  0
   -7.3892    1.5191    0.1810 H   0  0  0  0  0  0  0  0  0  0  0  0
   -6.3662    2.0046    1.5389 H   0  0  0  0  0  0  0  0  0  0  0  0
   -6.2058    2.8225   -0.0258 H   0  0  0  0  0  0  0  0  0  0  0  0
  1  2  1  0
  2  3  1  0
  3  4  1  0
  4  5  2  0
  5  6  1  0
  6  7  2  0
  7  8  1  0
  8  9  2  0
  9 10  1  0
  2 11  2  0
 11 12  1  0
 12 13  2  0
 13 14  1  0
 14 15  1  0
 14 16  1  0
 16 17  2  0
 17 18  1  0
 18 19  2  3
 19 20  1  0
 20 21  1  0
 21 22  1  0
 22 23  1  0
 22 24  1  0
 18  1  1  0
  9  4  1  0
 16 11  1  0
  1 25  1  0
  3 26  1  0
  5 27  1  0
  6 28  1  0
  7 29  1  0
  8 30  1  0
 12 31  1  0
 15 32  1  0
 15 33  1  0
 15 34  1  0
 20 35  1  0
 20 36  1  0
 21 37  1  0
 21 38  1  0
 22 39  1  0
 23 40  1  0
 23 41  1  0
 23 42  1  0
 24 43  1  0
 24 44  1  0
 24 45  1  0
M  END
>  <ScrubInfo>  (2) 
{"isomerGroup": 0, "isomerId": 1, "confId": 0, "nr_conformers:": 1, "nr_isomers:": 9}

$$$$
_i2
     RDKit          3D

 45 47  0  0  0  0  0  0  0  0999 V2000
    0.1261    0.1081   -0.3589 N   0  0  0  0  0  0  0  0  0  0  0  0
    0.8804   -0.9751    0.0139 C   0  0  0  0  0  0  0  0  0  0  0  0
    2.2241   -0.7804    0.1404 N   0  0  0  0  0  0  0  0  0  0  0  0
    3.0375    0.0905   -0.6850 C   0  0  0  0  0  0  0  0  0  0  0  0
    3.4546    1.3424    0.0894 C   0  0  0  0  0  0  0  0  0  0  0  0
    4.2869    1.0792    1.3609 C   0  0  0  0  0  0  0  0  0  0  0  0
    4.5675    2.4034    2.0769 C   0  0  0  0  0  0  0  0  0  0  0  0
    5.6057    0.3664    1.0597 C   0  0  0  0  0  0  0  0  0  0  0  0
    0.3816   -2.1608    0.2627 N   0  0  0  0  0  0  0  0  0  0  0  0
   -0.9703   -2.1830    0.0889 C   0  0  0  0  0  0  0  0  0  0  0  0
   -1.8124   -1.1434   -0.2775 C   0  0  0  0  0  0  0  0  0  0  0  0
   -3.0875   -1.7333   -0.3303 C   0  0  0  0  0  0  0  0  0  0  0  0
   -3.0715   -3.0361   -0.0203 N   0  0  0  0  0  0  0  0  0  0  0  0
   -1.7682   -3.2813    0.2452 N   0  0  0  0  0  0  0  0  0  0  0  0
   -1.3624   -4.6098    0.6288 C   0  0  0  0  0  0  0  0  0  0  0  0
   -1.2397    0.1682   -0.5102 C   0  0  0  0  0  0  0  0  0  0  0  0
   -1.8382    1.2789   -0.8170 N   0  0  0  0  0  0  0  0  0  0  0  0
   -3.2315    1.3656   -0.9186 C   0  0  0  0  0  0  0  0  0  0  0  0
   -3.8405    1.2930   -2.1751 C   0  0  0  0  0  0  0  0  0  0  0  0
   -5.2282    1.4108   -2.2983 C   0  0  0  0  0  0  0  0  0  0  0  0
   -6.0176    1.6185   -1.1660 C   0  0  0  0  0  0  0  0  0  0  0  0
   -5.4197    1.7159    0.0896 C   0  0  0  0  0  0  0  0  0  0  0  0
   -4.0367    1.5975    0.2046 C   0  0  0  0  0  0  0  0  0  0  0  0
   -3.4806    1.6945    1.4222 F   0  0  0  0  0  0  0  0  0  0  0  0
    0.5764    1.0066   -0.3839 H   0  0  0  0  0  0  0  0  0  0  0  0
    2.6878   -1.6510    0.3881 H   0  0  0  0  0  0  0  0  0  0  0  0
    2.4968    0.3844   -1.5925 H   0  0  0  0  0  0  0  0  0  0  0  0
    3.9198   -0.4596   -1.0289 H   0  0  0  0  0  0  0  0  0  0  0  0
    4.0244    1.9917   -0.5879 H   0  0  0  0  0  0  0  0  0  0  0  0
    2.5538    1.9032    0.3696 H   0  0  0  0  0  0  0  0  0  0  0  0
    3.7061    0.4503    2.0468 H   0  0  0  0  0  0  0  0  0  0  0  0
    3.6325    2.9105    2.3378 H   0  0  0  0  0  0  0  0  0  0  0  0
    5.1238    2.2339    3.0049 H   0  0  0  0  0  0  0  0  0  0  0  0
    5.1563    3.0792    1.4473 H   0  0  0  0  0  0  0  0  0  0  0  0
    5.4340   -0.6411    0.6692 H   0  0  0  0  0  0  0  0  0  0  0  0
    6.1988    0.9219    0.3254 H   0  0  0  0  0  0  0  0  0  0  0  0
    6.2070    0.2616    1.9694 H   0  0  0  0  0  0  0  0  0  0  0  0
   -4.0398   -1.2902   -0.5846 H   0  0  0  0  0  0  0  0  0  0  0  0
   -0.3300   -4.5988    0.9850 H   0  0  0  0  0  0  0  0  0  0  0  0
   -1.4506   -5.2592   -0.2457 H   0  0  0  0  0  0  0  0  0  0  0  0
   -2.0209   -4.9566    1.4295 H   0  0  0  0  0  0  0  0  0  0  0  0
   -3.2291    1.1430   -3.0611 H   0  0  0  0  0  0  0  0  0  0  0  0
   -5.6918    1.3451   -3.2799 H   0  0  0  0  0  0  0  0  0  0  0  0
   -7.0967    1.7109   -1.2636 H   0  0  0  0  0  0  0  0  0  0  0  0
   -6.0181    1.8846    0.9792 H   0  0  0  0  0  0  0  0  0  0  0  0
  1  2  1  0
  2  3  1  0
  3  4  1  0
  4  5  1  0
  5  6  1  0
  6  7  1  0
  6  8  1  0
  2  9  2  0
  9 10  1  0
 10 11  2  0
 11 12  1  0
 12 13  2  0
 13 14  1  0
 14 15  1  0
 11 16  1  0
 16 17  2  3
 17 18  1  0
 18 19  2  0
 19 20  1  0
 20 21  2  0
 21 22  1  0
 22 23  2  0
 23 24  1  0
 16  1  1  0
 23 18  1  0
 14 10  1  0
  1 25  1  0
  3 26  1  0
  4 27  1  0
  4 28  1  0
  5 29  1  0
  5 30  1  0
  6 31  1  0
  7 32  1  0
  7 33  1  0
  7 34  1  0
  8 35  1  0
  8 36  1  0
  8 37  1  0
 12 38  1  0
 15 39  1  0
 15 40  1  0
 15 41  1  0
 19 42  1  0
 20 43  1  0
 21 44  1  0
 22 45  1  0
M  END
>  <ScrubInfo>  (3) 
{"isomerGroup": 0, "isomerId": 2, "confId": 0, "nr_conformers:": 1, "nr_isomers:": 9}

$$$$
_i3
     RDKit          3D

 45 47  0  0  0  0  0  0  0  0999 V2000
    0.3004   -1.5491   -0.8049 N   0  0  0  0  0  0  0  0  0  0  0  0
    0.7269   -0.2296   -0.7975 C   0  0  0  0  0  0  0  0  0  0  0  0
    1.9451    0.1733   -0.7064 N   0  0  0  0  0  0  0  0  0  0  0  0
    3.0173   -0.8028   -0.5862 C   0  0  0  0  0  0  0  0  0  0  0  0
    4.3550   -0.0694   -0.4590 C   0  0  0  0  0  0  0  0  0  0  0  0
    4.4821    0.8438    0.7770 C   0  0  0  0  0  0  0  0  0  0  0  0
    4.3461    0.0731    2.0907 C   0  0  0  0  0  0  0  0  0  0  0  0
    5.8278    1.5735    0.7430 C   0  0  0  0  0  0  0  0  0  0  0  0
   -0.1772    0.8184   -0.8980 N   0  0  0  0  0  0  0  0  0  0  0  0
   -1.4531    0.5650   -0.9720 C   0  0  0  0  0  0  0  0  0  0  0  0
   -2.3953    1.5567   -1.0912 N   0  0  0  0  0  0  0  0  0  0  0  0
   -3.4645    1.7396   -0.1713 C   0  0  0  0  0  0  0  0  0  0  0  0
   -4.5630    2.5057   -0.5891 C   0  0  0  0  0  0  0  0  0  0  0  0
   -5.6266    2.7675    0.2800 C   0  0  0  0  0  0  0  0  0  0  0  0
   -5.5975    2.2851    1.5875 C   0  0  0  0  0  0  0  0  0  0  0  0
   -4.5001    1.5493    2.0288 C   0  0  0  0  0  0  0  0  0  0  0  0
   -3.4428    1.2912    1.1583 C   0  0  0  0  0  0  0  0  0  0  0  0
   -2.3889    0.6119    1.6337 F   0  0  0  0  0  0  0  0  0  0  0  0
   -1.9355   -0.7952   -1.0167 C   0  0  0  0  0  0  0  0  0  0  0  0
   -3.1613   -1.4617   -1.1591 C   0  0  0  0  0  0  0  0  0  0  0  0
   -3.0211   -2.7972   -1.1420 N   0  0  0  0  0  0  0  0  0  0  0  0
   -1.6863   -2.9800   -0.9863 N   0  0  0  0  0  0  0  0  0  0  0  0
   -1.1667   -4.3220   -0.9233 C   0  0  0  0  0  0  0  0  0  0  0  0
   -1.0145   -1.8009   -0.9237 C   0  0  0  0  0  0  0  0  0  0  0  0
    1.0068   -2.2651   -0.7400 H   0  0  0  0  0  0  0  0  0  0  0  0
    3.0557   -1.4301   -1.4851 H   0  0  0  0  0  0  0  0  0  0  0  0
    2.8640   -1.4597    0.2767 H   0  0  0  0  0  0  0  0  0  0  0  0
    5.1593   -0.8161   -0.4443 H   0  0  0  0  0  0  0  0  0  0  0  0
    4.5074    0.5361   -1.3622 H   0  0  0  0  0  0  0  0  0  0  0  0
    3.6928    1.6049    0.7436 H   0  0  0  0  0  0  0  0  0  0  0  0
    4.5177    0.7333    2.9478 H   0  0  0  0  0  0  0  0  0  0  0  0
    3.3422   -0.3472    2.2038 H   0  0  0  0  0  0  0  0  0  0  0  0
    5.0694   -0.7474    2.1465 H   0  0  0  0  0  0  0  0  0  0  0  0
    6.6643    0.8676    0.7845 H   0  0  0  0  0  0  0  0  0  0  0  0
    5.9205    2.2591    1.5920 H   0  0  0  0  0  0  0  0  0  0  0  0
    5.9271    2.1644   -0.1737 H   0  0  0  0  0  0  0  0  0  0  0  0
   -1.8970    2.4440   -1.1523 H   0  0  0  0  0  0  0  0  0  0  0  0
   -4.6018    2.8916   -1.6057 H   0  0  0  0  0  0  0  0  0  0  0  0
   -6.4774    3.3507   -0.0650 H   0  0  0  0  0  0  0  0  0  0  0  0
   -6.4239    2.4898    2.2637 H   0  0  0  0  0  0  0  0  0  0  0  0
   -4.4537    1.1802    3.0487 H   0  0  0  0  0  0  0  0  0  0  0  0
   -4.1519   -1.0426   -1.2772 H   0  0  0  0  0  0  0  0  0  0  0  0
   -1.3436   -4.8041   -1.8879 H   0  0  0  0  0  0  0  0  0  0  0  0
   -1.6882   -4.8580   -0.1262 H   0  0  0  0  0  0  0  0  0  0  0  0
   -0.0961   -4.2975   -0.7099 H   0  0  0  0  0  0  0  0  0  0  0  0
  1  2  1  0
  2  3  2  3
  3  4  1  0
  4  5  1  0
  5  6  1  0
  6  7  1  0
  6  8  1  0
  2  9  1  0
  9 10  2  0
 10 11  1  0
 11 12  1  0
 12 13  2  0
 13 14  1  0
 14 15  2  0
 15 16  1  0
 16 17  2  0
 17 18  1  0
 10 19  1  0
 19 20  1  0
 20 21  2  0
 21 22  1  0
 22 23  1  0
 22 24  1  0
 24  1  1  0
 17 12  1  0
 24 19  2  0
  1 25  1  0
  4 26  1  0
  4 27  1  0
  5 28  1  0
  5 29  1  0
  6 30  1  0
  7 31  1  0
  7 32  1  0
  7 33  1  0
  8 34  1  0
  8 35  1  0
  8 36  1  0
 11 37  1  0
 13 38  1  0
 14 39  1  0
 15 40  1  0
 16 41  1  0
 20 42  1  0
 23 43  1  0
 23 44  1  0
 23 45  1  0
M  END
>  <ScrubInfo>  (4) 
{"isomerGroup": 0, "isomerId": 3, "confId": 0, "nr_conformers:": 1, "nr_isomers:": 9}

$$$$
_i4
     RDKit          3D

 45 47  0  0  0  0  0  0  0  0999 V2000
   -3.2761   -2.7103    0.2536 N   0  0  0  0  0  0  0  0  0  0  0  0
   -3.1088   -1.3678   -0.0697 C   0  0  0  0  0  0  0  0  0  0  0  0
   -1.8285   -1.0203   -0.2725 C   0  0  0  0  0  0  0  0  0  0  0  0
   -1.0426    0.1521   -0.6364 C   0  0  0  0  0  0  0  0  0  0  0  0
   -1.3990    1.3729   -0.8591 N   0  0  0  0  0  0  0  0  0  0  0  0
   -2.7447    1.7529   -0.8027 C   0  0  0  0  0  0  0  0  0  0  0  0
   -3.2331    2.3827    0.3463 C   0  0  0  0  0  0  0  0  0  0  0  0
   -4.5654    2.8011    0.4161 C   0  0  0  0  0  0  0  0  0  0  0  0
   -5.4190    2.6053   -0.6705 C   0  0  0  0  0  0  0  0  0  0  0  0
   -4.9392    1.9963   -1.8292 C   0  0  0  0  0  0  0  0  0  0  0  0
   -3.6102    1.5822   -1.8911 C   0  0  0  0  0  0  0  0  0  0  0  0
   -3.1758    0.9853   -3.0116 F   0  0  0  0  0  0  0  0  0  0  0  0
    0.2993   -0.0951   -0.7475 N   0  0  0  0  0  0  0  0  0  0  0  0
    0.8378   -1.2533   -0.5226 C   0  0  0  0  0  0  0  0  0  0  0  0
    2.1826   -1.4392   -0.6637 N   0  0  0  0  0  0  0  0  0  0  0  0
    3.1410   -0.3549   -0.7080 C   0  0  0  0  0  0  0  0  0  0  0  0
    3.4237    0.1685    0.7021 C   0  0  0  0  0  0  0  0  0  0  0  0
    4.3524    1.3962    0.7244 C   0  0  0  0  0  0  0  0  0  0  0  0
    4.4626    1.9377    2.1519 C   0  0  0  0  0  0  0  0  0  0  0  0
    5.7476    1.0834    0.1821 C   0  0  0  0  0  0  0  0  0  0  0  0
    0.1635   -2.3745   -0.1214 N   0  0  0  0  0  0  0  0  0  0  0  0
   -1.1130   -2.2788    0.0137 C   0  0  0  0  0  0  0  0  0  0  0  0
   -2.0154   -3.2630    0.4219 N   0  0  0  0  0  0  0  0  0  0  0  0
   -1.8052   -4.6542    0.0680 C   0  0  0  0  0  0  0  0  0  0  0  0
   -3.9423   -2.8655    1.0135 H   0  0  0  0  0  0  0  0  0  0  0  0
   -3.9891   -0.7453   -0.1226 H   0  0  0  0  0  0  0  0  0  0  0  0
   -2.5647    2.5552    1.1862 H   0  0  0  0  0  0  0  0  0  0  0  0
   -4.9315    3.2913    1.3152 H   0  0  0  0  0  0  0  0  0  0  0  0
   -6.4528    2.9380   -0.6183 H   0  0  0  0  0  0  0  0  0  0  0  0
   -5.5862    1.8450   -2.6873 H   0  0  0  0  0  0  0  0  0  0  0  0
    2.5026   -2.3047   -0.2499 H   0  0  0  0  0  0  0  0  0  0  0  0
    2.7869    0.4515   -1.3602 H   0  0  0  0  0  0  0  0  0  0  0  0
    4.0613   -0.7429   -1.1562 H   0  0  0  0  0  0  0  0  0  0  0  0
    3.8545   -0.6379    1.3102 H   0  0  0  0  0  0  0  0  0  0  0  0
    2.4740    0.4374    1.1829 H   0  0  0  0  0  0  0  0  0  0  0  0
    3.9098    2.1831    0.1005 H   0  0  0  0  0  0  0  0  0  0  0  0
    3.4762    2.2087    2.5430 H   0  0  0  0  0  0  0  0  0  0  0  0
    5.0894    2.8353    2.1807 H   0  0  0  0  0  0  0  0  0  0  0  0
    4.9027    1.1949    2.8260 H   0  0  0  0  0  0  0  0  0  0  0  0
    6.2096    0.2546    0.7292 H   0  0  0  0  0  0  0  0  0  0  0  0
    5.7124    0.8155   -0.8781 H   0  0  0  0  0  0  0  0  0  0  0  0
    6.4040    1.9556    0.2733 H   0  0  0  0  0  0  0  0  0  0  0  0
   -1.8638   -4.7934   -1.0166 H   0  0  0  0  0  0  0  0  0  0  0  0
   -0.8240   -4.9956    0.4130 H   0  0  0  0  0  0  0  0  0  0  0  0
   -2.5637   -5.2861    0.5414 H   0  0  0  0  0  0  0  0  0  0  0  0
  1  2  1  0
  2  3  2  0
  3  4  1  0
  4  5  2  3
  5  6  1  0
  6  7  2  0
  7  8  1  0
  8  9  2  0
  9 10  1  0
 10 11  2  0
 11 12  1  0
  4 13  1  0
 13 14  2  0
 14 15  1  0
 15 16  1  0
 16 17  1  0
 17 18  1  0
 18 19  1  0
 18 20  1  0
 14 21  1  0
 21 22  2  0
 22 23  1  0
 23 24  1  0
 23  1  1  0
 22  3  1  0
 11  6  1  0
  1 25  1  0
  2 26  1  0
  7 27  1  0
  8 28  1  0
  9 29  1  0
 10 30  1  0
 15 31  1  0
 16 32  1  0
 16 33  1  0
 17 34  1  0
 17 35  1  0
 18 36  1  0
 19 37  1  0
 19 38  1  0
 19 39  1  0
 20 40  1  0
 20 41  1  0
 20 42  1  0
 24 43  1  0
 24 44  1  0
 24 45  1  0
M  END
>  <ScrubInfo>  (5) 
{"isomerGroup": 0, "isomerId": 4, "confId": 0, "nr_conformers:": 1, "nr_isomers:": 9}

$$$$
_i5
     RDKit          3D

 45 47  0  0  0  0  0  0  0  0999 V2000
    0.1202   -1.0514    0.7182 N   0  0  0  0  0  0  0  0  0  0  0  0
    0.3903    0.2925    0.6776 C   0  0  0  0  0  0  0  0  0  0  0  0
    1.6852    0.6337    0.9470 N   0  0  0  0  0  0  0  0  0  0  0  0
    2.7935    0.0594    0.1927 C   0  0  0  0  0  0  0  0  0  0  0  0
    4.1129    0.6384    0.7083 C   0  0  0  0  0  0  0  0  0  0  0  0
    5.3567   -0.0102    0.0743 C   0  0  0  0  0  0  0  0  0  0  0  0
    5.4334    0.2274   -1.4345 C   0  0  0  0  0  0  0  0  0  0  0  0
    6.6223    0.5270    0.7470 C   0  0  0  0  0  0  0  0  0  0  0  0
   -0.4746    1.2313    0.4218 N   0  0  0  0  0  0  0  0  0  0  0  0
   -1.8002    0.9008    0.1621 C   0  0  0  0  0  0  0  0  0  0  0  0
   -2.5873    1.8959   -0.0966 N   0  0  0  0  0  0  0  0  0  0  0  0
   -3.9545    1.7330   -0.3359 C   0  0  0  0  0  0  0  0  0  0  0  0
   -4.4274    1.7164   -1.6517 C   0  0  0  0  0  0  0  0  0  0  0  0
   -5.7952    1.5920   -1.9134 C   0  0  0  0  0  0  0  0  0  0  0  0
   -6.7048    1.4993   -0.8589 C   0  0  0  0  0  0  0  0  0  0  0  0
   -6.2480    1.5379    0.4577 C   0  0  0  0  0  0  0  0  0  0  0  0
   -4.8836    1.6619    0.7106 C   0  0  0  0  0  0  0  0  0  0  0  0
   -4.4662    1.6878    1.9857 F   0  0  0  0  0  0  0  0  0  0  0  0
   -2.1374   -0.5140    0.2008 C   0  0  0  0  0  0  0  0  0  0  0  0
   -3.2729   -1.3229    0.0124 C   0  0  0  0  0  0  0  0  0  0  0  0
   -3.0196   -2.6302    0.1871 N   0  0  0  0  0  0  0  0  0  0  0  0
   -1.7036   -2.6627    0.4952 N   0  0  0  0  0  0  0  0  0  0  0  0
   -1.0774   -3.9337    0.7547 C   0  0  0  0  0  0  0  0  0  0  0  0
   -1.1501   -1.4231    0.4900 C   0  0  0  0  0  0  0  0  0  0  0  0
    0.8208   -1.6472    1.1369 H   0  0  0  0  0  0  0  0  0  0  0  0
    1.7354    1.6525    0.9346 H   0  0  0  0  0  0  0  0  0  0  0  0
    2.8052   -1.0301    0.3051 H   0  0  0  0  0  0  0  0  0  0  0  0
    2.6599    0.2913   -0.8692 H   0  0  0  0  0  0  0  0  0  0  0  0
    4.1559    0.5012    1.7972 H   0  0  0  0  0  0  0  0  0  0  0  0
    4.1285    1.7228    0.5363 H   0  0  0  0  0  0  0  0  0  0  0  0
    5.3172   -1.0927    0.2498 H   0  0  0  0  0  0  0  0  0  0  0  0
    4.6028   -0.2568   -1.9568 H   0  0  0  0  0  0  0  0  0  0  0  0
    6.3599   -0.1875   -1.8461 H   0  0  0  0  0  0  0  0  0  0  0  0
    5.4085    1.2967   -1.6698 H   0  0  0  0  0  0  0  0  0  0  0  0
    6.7209    1.6084    0.6028 H   0  0  0  0  0  0  0  0  0  0  0  0
    6.6054    0.3282    1.8238 H   0  0  0  0  0  0  0  0  0  0  0  0
    7.5162    0.0470    0.3346 H   0  0  0  0  0  0  0  0  0  0  0  0
   -3.7234    1.8064   -2.4751 H   0  0  0  0  0  0  0  0  0  0  0  0
   -6.1498    1.5763   -2.9413 H   0  0  0  0  0  0  0  0  0  0  0  0
   -7.7686    1.4061   -1.0635 H   0  0  0  0  0  0  0  0  0  0  0  0
   -6.9421    1.4754    1.2896 H   0  0  0  0  0  0  0  0  0  0  0  0
   -4.2836   -1.0391   -0.2450 H   0  0  0  0  0  0  0  0  0  0  0  0
   -1.2447   -4.5847   -0.1072 H   0  0  0  0  0  0  0  0  0  0  0  0
   -1.5310   -4.3628    1.6517 H   0  0  0  0  0  0  0  0  0  0  0  0
   -0.0051   -3.7975    0.9097 H   0  0  0  0  0  0  0  0  0  0  0  0
  1  2  1  0
  2  3  1  0
  3  4  1  0
  4  5  1  0
  5  6  1  0
  6  7  1  0
  6  8  1  0
  2  9  2  0
  9 10  1  0
 10 11  2  3
 11 12  1  0
 12 13  2  0
 13 14  1  0
 14 15  2  0
 15 16  1  0
 16 17  2  0
 17 18  1  0
 10 19  1  0
 19 20  1  0
 20 21  2  0
 21 22  1  0
 22 23  1  0
 22 24  1  0
 24  1  1  0
 17 12  1  0
 24 19  2  0
  1 25  1  0
  3 26  1  0
  4 27  1  0
  4 28  1  0
  5 29  1  0
  5 30  1  0
  6 31  1  0
  7 32  1  0
  7 33  1  0
  7 34  1  0
  8 35  1  0
  8 36  1  0
  8 37  1  0
 13 38  1  0
 14 39  1  0
 15 40  1  0
 16 41  1  0
 20 42  1  0
 23 43  1  0
 23 44  1  0
 23 45  1  0
M  END
>  <ScrubInfo>  (6) 
{"isomerGroup": 0, "isomerId": 5, "confId": 0, "nr_conformers:": 1, "nr_isomers:": 9}

$$$$
_i6
     RDKit          3D

 45 47  0  0  0  0  0  0  0  0999 V2000
   -0.4451   -4.0388   -1.3136 N   0  0  0  0  0  0  0  0  0  0  0  0
   -1.5809   -3.2852   -1.0348 C   0  0  0  0  0  0  0  0  0  0  0  0
   -1.2984   -2.1071   -0.4622 C   0  0  0  0  0  0  0  0  0  0  0  0
   -2.0129   -0.9274    0.0268 C   0  0  0  0  0  0  0  0  0  0  0  0
   -3.3915   -0.8776   -0.0646 N   0  0  0  0  0  0  0  0  0  0  0  0
   -4.2324    0.0631    0.5599 C   0  0  0  0  0  0  0  0  0  0  0  0
   -5.3100    0.5966   -0.1647 C   0  0  0  0  0  0  0  0  0  0  0  0
   -6.1381    1.5770    0.3933 C   0  0  0  0  0  0  0  0  0  0  0  0
   -5.9000    2.0434    1.6848 C   0  0  0  0  0  0  0  0  0  0  0  0
   -4.8370    1.5251    2.4197 C   0  0  0  0  0  0  0  0  0  0  0  0
   -4.0147    0.5489    1.8584 C   0  0  0  0  0  0  0  0  0  0  0  0
   -3.0538    0.0195    2.6314 F   0  0  0  0  0  0  0  0  0  0  0  0
   -1.2934    0.0507    0.4978 N   0  0  0  0  0  0  0  0  0  0  0  0
    0.0788   -0.0528    0.5266 C   0  0  0  0  0  0  0  0  0  0  0  0
    0.6716    1.0148    0.9287 N   0  0  0  0  0  0  0  0  0  0  0  0
    2.1292    1.0373    1.0215 C   0  0  0  0  0  0  0  0  0  0  0  0
    2.7223    1.5338   -0.2987 C   0  0  0  0  0  0  0  0  0  0  0  0
    4.2604    1.4866   -0.3352 C   0  0  0  0  0  0  0  0  0  0  0  0
    4.7584    1.8639   -1.7325 C   0  0  0  0  0  0  0  0  0  0  0  0
    4.8977    2.4072    0.7063 C   0  0  0  0  0  0  0  0  0  0  0  0
    0.8280   -1.1486    0.1589 N   0  0  0  0  0  0  0  0  0  0  0  0
    0.1706   -2.1497   -0.3104 C   0  0  0  0  0  0  0  0  0  0  0  0
    0.6476   -3.3834   -0.7543 N   0  0  0  0  0  0  0  0  0  0  0  0
    1.9462   -3.4953   -1.3906 C   0  0  0  0  0  0  0  0  0  0  0  0
   -0.5414   -5.0277   -1.0698 H   0  0  0  0  0  0  0  0  0  0  0  0
   -2.5496   -3.6941   -1.2810 H   0  0  0  0  0  0  0  0  0  0  0  0
   -3.8423   -1.4554   -0.7591 H   0  0  0  0  0  0  0  0  0  0  0  0
   -5.5024    0.2703   -1.1836 H   0  0  0  0  0  0  0  0  0  0  0  0
   -6.9625    1.9853   -0.1866 H   0  0  0  0  0  0  0  0  0  0  0  0
   -6.5392    2.8085    2.1175 H   0  0  0  0  0  0  0  0  0  0  0  0
   -4.6395    1.8676    3.4305 H   0  0  0  0  0  0  0  0  0  0  0  0
    2.5535    0.0683    1.3100 H   0  0  0  0  0  0  0  0  0  0  0  0
    2.3910    1.7291    1.8295 H   0  0  0  0  0  0  0  0  0  0  0  0
    2.3732    2.5569   -0.4904 H   0  0  0  0  0  0  0  0  0  0  0  0
    2.3311    0.9209   -1.1210 H   0  0  0  0  0  0  0  0  0  0  0  0
    4.5853    0.4587   -0.1298 H   0  0  0  0  0  0  0  0  0  0  0  0
    5.8502    1.7982   -1.7878 H   0  0  0  0  0  0  0  0  0  0  0  0
    4.3462    1.1874   -2.4887 H   0  0  0  0  0  0  0  0  0  0  0  0
    4.4663    2.8862   -1.9961 H   0  0  0  0  0  0  0  0  0  0  0  0
    4.5536    3.4401    0.5869 H   0  0  0  0  0  0  0  0  0  0  0  0
    5.9891    2.4020    0.6129 H   0  0  0  0  0  0  0  0  0  0  0  0
    4.6592    2.0831    1.7238 H   0  0  0  0  0  0  0  0  0  0  0  0
    1.9598   -2.9566   -2.3438 H   0  0  0  0  0  0  0  0  0  0  0  0
    2.7288   -3.0846   -0.7447 H   0  0  0  0  0  0  0  0  0  0  0  0
    2.1873   -4.5461   -1.5811 H   0  0  0  0  0  0  0  0  0  0  0  0
  1  2  1  0
  2  3  2  0
  3  4  1  0
  4  5  1  0
  5  6  1  0
  6  7  2  0
  7  8  1  0
  8  9  2  0
  9 10  1  0
 10 11  2  0
 11 12  1  0
  4 13  2  0
 13 14  1  0
 14 15  2  3
 15 16  1  0
 16 17  1  0
 17 18  1  0
 18 19  1  0
 18 20  1  0
 14 21  1  0
 21 22  2  0
 22 23  1  0
 23 24  1  0
 23  1  1  0
 22  3  1  0
 11  6  1  0
  1 25  1  0
  2 26  1  0
  5 27  1  0
  7 28  1  0
  8 29  1  0
  9 30  1  0
 10 31  1  0
 16 32  1  0
 16 33  1  0
 17 34  1  0
 17 35  1  0
 18 36  1  0
 19 37  1  0
 19 38  1  0
 19 39  1  0
 20 40  1  0
 20 41  1  0
 20 42  1  0
 24 43  1  0
 24 44  1  0
 24 45  1  0
M  END
>  <ScrubInfo>  (7) 
{"isomerGroup": 0, "isomerId": 6, "confId": 0, "nr_conformers:": 1, "nr_isomers:": 9}

$$$$
_i7
     RDKit          3D

 45 47  0  0  0  0  0  0  0  0999 V2000
   -2.8576   -2.6574    0.5559 N   0  0  0  0  0  0  0  0  0  0  0  0
   -2.8888   -1.2967    0.2729 C   0  0  0  0  0  0  0  0  0  0  0  0
   -1.6987   -0.7972   -0.0905 C   0  0  0  0  0  0  0  0  0  0  0  0
   -1.0807    0.4704   -0.5203 C   0  0  0  0  0  0  0  0  0  0  0  0
   -1.6142    1.6494   -0.6513 N   0  0  0  0  0  0  0  0  0  0  0  0
   -2.9795    1.8515   -0.4086 C   0  0  0  0  0  0  0  0  0  0  0  0
   -3.3957    2.3441    0.8319 C   0  0  0  0  0  0  0  0  0  0  0  0
   -4.7506    2.5814    1.0828 C   0  0  0  0  0  0  0  0  0  0  0  0
   -5.7004    2.3407    0.0887 C   0  0  0  0  0  0  0  0  0  0  0  0
   -5.2956    1.8681   -1.1589 C   0  0  0  0  0  0  0  0  0  0  0  0
   -3.9440    1.6343   -1.4014 C   0  0  0  0  0  0  0  0  0  0  0  0
   -3.5767    1.1721   -2.6066 F   0  0  0  0  0  0  0  0  0  0  0  0
    0.2521    0.3355   -0.8078 N   0  0  0  0  0  0  0  0  0  0  0  0
    1.0102   -0.8050   -0.7297 C   0  0  0  0  0  0  0  0  0  0  0  0
    2.2526   -0.9234   -1.0335 N   0  0  0  0  0  0  0  0  0  0  0  0
    3.0210    0.2016   -1.5471 C   0  0  0  0  0  0  0  0  0  0  0  0
    3.5635    1.0752   -0.4135 C   0  0  0  0  0  0  0  0  0  0  0  0
    4.8187    0.5178    0.2888 C   0  0  0  0  0  0  0  0  0  0  0  0
    5.3558    1.5568    1.2782 C   0  0  0  0  0  0  0  0  0  0  0  0
    4.5654   -0.8000    1.0206 C   0  0  0  0  0  0  0  0  0  0  0  0
    0.4600   -1.9859   -0.2771 N   0  0  0  0  0  0  0  0  0  0  0  0
   -0.7966   -1.9940    0.0362 C   0  0  0  0  0  0  0  0  0  0  0  0
   -1.5348   -3.0729    0.5286 N   0  0  0  0  0  0  0  0  0  0  0  0
   -1.2254   -4.4311    0.1233 C   0  0  0  0  0  0  0  0  0  0  0  0
   -3.3927   -2.9143    1.3883 H   0  0  0  0  0  0  0  0  0  0  0  0
   -3.8322   -0.7809    0.3684 H   0  0  0  0  0  0  0  0  0  0  0  0
   -2.6579    2.5491    1.6034 H   0  0  0  0  0  0  0  0  0  0  0  0
   -5.0623    2.9644    2.0519 H   0  0  0  0  0  0  0  0  0  0  0  0
   -6.7531    2.5316    0.2832 H   0  0  0  0  0  0  0  0  0  0  0  0
   -6.0199    1.6847   -1.9462 H   0  0  0  0  0  0  0  0  0  0  0  0
    0.6998    1.1819   -1.1169 H   0  0  0  0  0  0  0  0  0  0  0  0
    2.4221    0.8081   -2.2367 H   0  0  0  0  0  0  0  0  0  0  0  0
    3.8506   -0.1872   -2.1489 H   0  0  0  0  0  0  0  0  0  0  0  0
    2.7795    1.2724    0.3280 H   0  0  0  0  0  0  0  0  0  0  0  0
    3.8277    2.0471   -0.8509 H   0  0  0  0  0  0  0  0  0  0  0  0
    5.5956    0.3454   -0.4668 H   0  0  0  0  0  0  0  0  0  0  0  0
    4.6256    1.7691    2.0666 H   0  0  0  0  0  0  0  0  0  0  0  0
    5.5881    2.4977    0.7680 H   0  0  0  0  0  0  0  0  0  0  0  0
    6.2761    1.2024    1.7545 H   0  0  0  0  0  0  0  0  0  0  0  0
    3.7193   -0.7161    1.7108 H   0  0  0  0  0  0  0  0  0  0  0  0
    4.3598   -1.6120    0.3174 H   0  0  0  0  0  0  0  0  0  0  0  0
    5.4455   -1.0982    1.6011 H   0  0  0  0  0  0  0  0  0  0  0  0
   -1.4060   -4.5681   -0.9480 H   0  0  0  0  0  0  0  0  0  0  0  0
   -0.1782   -4.6688    0.3363 H   0  0  0  0  0  0  0  0  0  0  0  0
   -1.8475   -5.1437    0.6746 H   0  0  0  0  0  0  0  0  0  0  0  0
  1  2  1  0
  2  3  2  0
  3  4  1  0
  4  5  2  3
  5  6  1  0
  6  7  2  0
  7  8  1  0
  8  9  2  0
  9 10  1  0
 10 11  2  0
 11 12  1  0
  4 13  1  0
 13 14  1  0
 14 15  2  3
 15 16  1  0
 16 17  1  0
 17 18  1  0
 18 19  1  0
 18 20  1  0
 14 21  1  0
 21 22  2  0
 22 23  1  0
 23 24  1  0
 23  1  1  0
 22  3  1  0
 11  6  1  0
  1 25  1  0
  2 26  1  0
  7 27  1  0
  8 28  1  0
  9 29  1  0
 10 30  1  0
 13 31  1  0
 16 32  1  0
 16 33  1  0
 17 34  1  0
 17 35  1  0
 18 36  1  0
 19 37  1  0
 19 38  1  0
 19 39  1  0
 20 40  1  0
 20 41  1  0
 20 42  1  0
 24 43  1  0
 24 44  1  0
 24 45  1  0
M  END
>  <ScrubInfo>  (8) 
{"isomerGroup": 0, "isomerId": 7, "confId": 0, "nr_conformers:": 1, "nr_isomers:": 9}

$$$$
_i8
     RDKit          3D

 45 47  0  0  0  0  0  0  0  0999 V2000
    0.2996   -1.2699   -0.6142 N   0  0  0  0  0  0  0  0  0  0  0  0
    0.7919    0.0157   -0.4641 C   0  0  0  0  0  0  0  0  0  0  0  0
    2.0204    0.4051   -0.5212 N   0  0  0  0  0  0  0  0  0  0  0  0
    3.0581   -0.5905   -0.7643 C   0  0  0  0  0  0  0  0  0  0  0  0
    4.4262    0.0961   -0.7606 C   0  0  0  0  0  0  0  0  0  0  0  0
    4.8081    0.7793    0.5680 C   0  0  0  0  0  0  0  0  0  0  0  0
    4.8769   -0.2069    1.7346 C   0  0  0  0  0  0  0  0  0  0  0  0
    6.1548    1.4914    0.4133 C   0  0  0  0  0  0  0  0  0  0  0  0
   -0.1904    0.9517   -0.2289 N   0  0  0  0  0  0  0  0  0  0  0  0
   -1.5577    0.8385   -0.0996 C   0  0  0  0  0  0  0  0  0  0  0  0
   -2.2957    1.8792    0.1450 N   0  0  0  0  0  0  0  0  0  0  0  0
   -3.6798    1.7891    0.3293 C   0  0  0  0  0  0  0  0  0  0  0  0
   -4.5398    2.0835   -0.7330 C   0  0  0  0  0  0  0  0  0  0  0  0
   -5.9261    2.0343   -0.5580 C   0  0  0  0  0  0  0  0  0  0  0  0
   -6.4643    1.7056    0.6872 C   0  0  0  0  0  0  0  0  0  0  0  0
   -5.6171    1.4324    1.7602 C   0  0  0  0  0  0  0  0  0  0  0  0
   -4.2370    1.4832    1.5782 C   0  0  0  0  0  0  0  0  0  0  0  0
   -3.4393    1.2130    2.6230 F   0  0  0  0  0  0  0  0  0  0  0  0
   -1.9803   -0.5406   -0.2842 C   0  0  0  0  0  0  0  0  0  0  0  0
   -3.1900   -1.2597   -0.3020 C   0  0  0  0  0  0  0  0  0  0  0  0
   -3.0161   -2.5702   -0.5301 N   0  0  0  0  0  0  0  0  0  0  0  0
   -1.6790   -2.6980   -0.6670 N   0  0  0  0  0  0  0  0  0  0  0  0
   -1.1172   -4.0014   -0.9176 C   0  0  0  0  0  0  0  0  0  0  0  0
   -1.0296   -1.5094   -0.5303 C   0  0  0  0  0  0  0  0  0  0  0  0
    0.9739   -2.0018   -0.7897 H   0  0  0  0  0  0  0  0  0  0  0  0
    2.9094   -1.0528   -1.7478 H   0  0  0  0  0  0  0  0  0  0  0  0
    3.0312   -1.3849   -0.0108 H   0  0  0  0  0  0  0  0  0  0  0  0
    5.1888   -0.6496   -1.0190 H   0  0  0  0  0  0  0  0  0  0  0  0
    4.4406    0.8479   -1.5608 H   0  0  0  0  0  0  0  0  0  0  0  0
    4.0571    1.5419    0.8084 H   0  0  0  0  0  0  0  0  0  0  0  0
    5.2249    0.2926    2.6453 H   0  0  0  0  0  0  0  0  0  0  0  0
    3.8930   -0.6313    1.9559 H   0  0  0  0  0  0  0  0  0  0  0  0
    5.5648   -1.0311    1.5179 H   0  0  0  0  0  0  0  0  0  0  0  0
    6.9560    0.7813    0.1814 H   0  0  0  0  0  0  0  0  0  0  0  0
    6.4249    2.0179    1.3349 H   0  0  0  0  0  0  0  0  0  0  0  0
    6.1134    2.2318   -0.3925 H   0  0  0  0  0  0  0  0  0  0  0  0
    0.1612    1.8898   -0.1016 H   0  0  0  0  0  0  0  0  0  0  0  0
   -4.1253    2.3544   -1.7006 H   0  0  0  0  0  0  0  0  0  0  0  0
   -6.5851    2.2599   -1.3932 H   0  0  0  0  0  0  0  0  0  0  0  0
   -7.5427    1.6703    0.8225 H   0  0  0  0  0  0  0  0  0  0  0  0
   -6.0190    1.1831    2.7370 H   0  0  0  0  0  0  0  0  0  0  0  0
   -4.2018   -0.9054   -0.1637 H   0  0  0  0  0  0  0  0  0  0  0  0
   -1.8445   -4.6062   -1.4658 H   0  0  0  0  0  0  0  0  0  0  0  0
   -0.8880   -4.4633    0.0456 H   0  0  0  0  0  0  0  0  0  0  0  0
   -0.2099   -3.8962   -1.5169 H   0  0  0  0  0  0  0  0  0  0  0  0
  1  2  1  0
  2  3  2  3
  3  4  1  0
  4  5  1  0
  5  6  1  0
  6  7  1  0
  6  8  1  0
  2  9  1  0
  9 10  1  0
 10 11  2  3
 11 12  1  0
 12 13  2  0
 13 14  1  0
 14 15  2  0
 15 16  1  0
 16 17  2  0
 17 18  1  0
 10 19  1  0
 19 20  1  0
 20 21  2  0
 21 22  1  0
 22 23  1  0
 22 24  1  0
 24  1  1  0
 17 12  1  0
 24 19  2  0
  1 25  1  0
  4 26  1  0
  4 27  1  0
  5 28  1  0
  5 29  1  0
  6 30  1  0
  7 31  1  0
  7 32  1  0
  7 33  1  0
  8 34  1  0
  8 35  1  0
  8 36  1  0
  9 37  1  0
 13 38  1  0
 14 39  1  0
 15 40  1  0
 16 41  1  0
 20 42  1  0
 23 43  1  0
 23 44  1  0
 23 45  1  0
M  END
>  <ScrubInfo>  (9) 
{"isomerGroup": 0, "isomerId": 8, "confId": 0, "nr_conformers:": 1, "nr_isomers:": 9}

$$$$
