REMARK SMILES CC(C)CCNc1nc(Nc2ccccc2F)c2cnn(C)c2n1
REMARK SMILES IDX 6 1 5 3 4 4 2 5 1 6 3 7 7 8 8 9 24 10 9 11 23 12 18 13 21 14
REMARK SMILES IDX 19 15 20 16 22 17 10 18 11 20 12 21 16 22 13 23 15 24 14 25
REMARK SMILES IDX 17 26
REMARK H PARENT 6 2 10 19
ROOT
ATOM      1  N   UNL     1       1.211   0.698  -1.667  1.00  0.00    -0.354 N 
ATOM      2  H   UNL     1       1.075  -0.302  -1.748  1.00  0.00     0.163 HD
ENDROOT
BRANCH   1   3
ATOM      3  C   UNL     1       2.573   1.137  -1.419  1.00  0.00     0.116 C 
BRANCH   3   4
ATOM      4  C   UNL     1       3.171   0.560  -0.129  1.00  0.00     0.024 C 
BRANCH   4   5
ATOM      5  C   UNL     1       3.204  -0.980  -0.041  1.00  0.00    -0.016 C 
ATOM      6  C   UNL     1       3.792  -1.405   1.308  1.00  0.00     0.007 C 
ATOM      7  C   UNL     1       4.007  -1.614  -1.177  1.00  0.00     0.007 C 
ENDBRANCH   4   5
ENDBRANCH   3   4
ENDBRANCH   1   3
BRANCH   1   8
ATOM      8  C   UNL     1       0.229   1.165  -0.807  1.00  0.00     0.226 A 
ATOM      9  N   UNL     1      -0.761   0.286  -0.566  1.00  0.00    -0.195 NA
ATOM     10  N   UNL     1       0.325   2.395  -0.288  1.00  0.00    -0.193 NA
ATOM     11  C   UNL     1      -1.792   0.603   0.261  1.00  0.00     0.147 A 
ATOM     12  C   UNL     1      -0.699   2.695   0.523  1.00  0.00     0.165 A 
ATOM     13  C   UNL     1      -1.764   1.877   0.842  1.00  0.00     0.082 A 
ATOM     14  N   UNL     1      -0.903   3.865   1.202  1.00  0.00    -0.250 N 
ATOM     15  C   UNL     1      -2.547   2.652   1.723  1.00  0.00     0.149 A 
ATOM     16  N   UNL     1      -2.029   3.865   1.953  1.00  0.00    -0.179 NA
ATOM     17  C   UNL     1      -0.062   5.036   1.185  1.00  0.00     0.176 C 
BRANCH  11  18
ATOM     18  N   UNL     1      -2.827  -0.299   0.535  1.00  0.00    -0.337 N 
ATOM     19  H   UNL     1      -3.515   0.037   1.200  1.00  0.00     0.168 HD
BRANCH  18  20
ATOM     20  C   UNL     1      -3.112  -1.599   0.077  1.00  0.00     0.076 A 
ATOM     21  C   UNL     1      -2.366  -2.280  -0.887  1.00  0.00     0.029 A 
ATOM     22  C   UNL     1      -4.218  -2.272   0.628  1.00  0.00     0.146 A 
ATOM     23  C   UNL     1      -2.713  -3.580  -1.282  1.00  0.00     0.002 A 
ATOM     24  C   UNL     1      -4.573  -3.563   0.244  1.00  0.00     0.041 A 
ATOM     25  C   UNL     1      -3.814  -4.221  -0.718  1.00  0.00     0.003 A 
ATOM     26  F   UNL     1      -4.961  -1.649   1.559  1.00  0.00    -0.205 F 
ENDBRANCH  18  20
ENDBRANCH  11  18
ENDBRANCH   1   8
TORSDOF 6
