_i0
     RDKit          3D

 44 46  0  0  0  0  0  0  0  0999 V2000
    4.1156    4.0565   -2.3341 C   0  0  0  0  0  0  0  0  0  0  0  0
    4.4886    3.5594   -1.0551 O   0  0  0  0  0  0  0  0  0  0  0  0
    3.7458    2.5265   -0.5558 C   0  0  0  0  0  0  0  0  0  0  0  0
    2.6522    1.9256   -1.1726 C   0  0  0  0  0  0  0  0  0  0  0  0
    1.9770    0.8681   -0.5441 C   0  0  0  0  0  0  0  0  0  0  0  0
    2.3805    0.3816    0.7022 C   0  0  0  0  0  0  0  0  0  0  0  0
    1.7271   -0.6549    1.3900 N   0  0  0  0  0  0  0  0  0  0  0  0
    0.5206   -1.3302    1.1504 C   0  0  0  0  0  0  0  0  0  0  0  0
   -0.3573   -0.9186    0.1985 N   0  0  0  0  0  0  0  0  0  0  0  0
   -1.5191   -1.5678   -0.0038 C   0  0  0  0  0  0  0  0  0  0  0  0
   -2.3942   -1.1221   -0.9916 N   0  0  0  0  0  0  0  0  0  0  0  0
   -2.4685    0.3288   -1.1014 C   0  0  0  0  0  0  0  0  0  0  0  0
   -3.4864    0.6937   -2.1835 C   0  0  0  0  0  0  0  0  0  0  0  0
   -3.5609    2.1969   -2.4053 C   0  0  0  0  0  0  0  0  0  0  0  0
   -4.0324    2.8349   -1.2274 O   0  0  0  0  0  0  0  0  0  0  0  0
   -1.9383   -2.6443    0.6723 N   0  0  0  0  0  0  0  0  0  0  0  0
   -1.0659   -3.0377    1.6110 C   0  0  0  0  0  0  0  0  0  0  0  0
    0.1482   -2.4494    1.9060 C   0  0  0  0  0  0  0  0  0  0  0  0
    0.6678   -3.2317    2.9589 C   0  0  0  0  0  0  0  0  0  0  0  0
   -0.1423   -4.2356    3.3127 N   0  0  0  0  0  0  0  0  0  0  0  0
   -1.1919   -4.0959    2.4691 N   0  0  0  0  0  0  0  0  0  0  0  0
   -2.2920   -5.0238    2.5461 C   0  0  0  0  0  0  0  0  0  0  0  0
    3.4779    1.0049    1.3146 C   0  0  0  0  0  0  0  0  0  0  0  0
    4.1533    2.0609    0.6926 C   0  0  0  0  0  0  0  0  0  0  0  0
    4.2112    3.2821   -3.1024 H   0  0  0  0  0  0  0  0  0  0  0  0
    4.8043    4.8670   -2.5915 H   0  0  0  0  0  0  0  0  0  0  0  0
    3.1032    4.4733   -2.3157 H   0  0  0  0  0  0  0  0  0  0  0  0
    2.2913    2.2476   -2.1432 H   0  0  0  0  0  0  0  0  0  0  0  0
    1.1359    0.4230   -1.0671 H   0  0  0  0  0  0  0  0  0  0  0  0
    2.2503   -1.0198    2.1730 H   0  0  0  0  0  0  0  0  0  0  0  0
   -3.2797   -1.5713   -0.7814 H   0  0  0  0  0  0  0  0  0  0  0  0
   -1.4930    0.7444   -1.3821 H   0  0  0  0  0  0  0  0  0  0  0  0
   -2.7672    0.7671   -0.1411 H   0  0  0  0  0  0  0  0  0  0  0  0
   -4.4733    0.3165   -1.8875 H   0  0  0  0  0  0  0  0  0  0  0  0
   -3.2190    0.2016   -3.1264 H   0  0  0  0  0  0  0  0  0  0  0  0
   -2.5786    2.6071   -2.6608 H   0  0  0  0  0  0  0  0  0  0  0  0
   -4.2571    2.4210   -3.2197 H   0  0  0  0  0  0  0  0  0  0  0  0
   -4.0819    3.7881   -1.4172 H   0  0  0  0  0  0  0  0  0  0  0  0
    1.6053   -3.1150    3.4861 H   0  0  0  0  0  0  0  0  0  0  0  0
   -1.9058   -6.0305    2.3670 H   0  0  0  0  0  0  0  0  0  0  0  0
   -3.0443   -4.7771    1.7937 H   0  0  0  0  0  0  0  0  0  0  0  0
   -2.7302   -4.9547    3.5449 H   0  0  0  0  0  0  0  0  0  0  0  0
    3.8215    0.6795    2.2930 H   0  0  0  0  0  0  0  0  0  0  0  0
    5.0018    2.5243    1.1895 H   0  0  0  0  0  0  0  0  0  0  0  0
  1  2  1  0
  2  3  1  0
  3  4  2  0
  4  5  1  0
  5  6  2  0
  6  7  1  0
  7  8  1  0
  8  9  2  0
  9 10  1  0
 10 11  1  0
 11 12  1  0
 12 13  1  0
 13 14  1  0
 14 15  1  0
 10 16  2  0
 16 17  1  0
 17 18  2  0
 18 19  1  0
 19 20  2  0
 20 21  1  0
 21 22  1  0
  6 23  1  0
 23 24  2  0
 24  3  1  0
 18  8  1  0
 21 17  1  0
  1 25  1  0
  1 26  1  0
  1 27  1  0
  4 28  1  0
  5 29  1  0
  7 30  1  0
 11 31  1  0
 12 32  1  0
 12 33  1  0
 13 34  1  0
 13 35  1  0
 14 36  1  0
 14 37  1  0
 15 38  1  0
 19 39  1  0
 22 40  1  0
 22 41  1  0
 22 42  1  0
 23 43  1  0
 24 44  1  0
M  END
>  <ScrubInfo>  (1) 
{"isomerGroup": 0, "isomerId": 0, "confId": 0, "nr_conformers:": 1, "nr_isomers:": 9}

$$$$
_i1
     RDKit          3D

 44 46  0  0  0  0  0  0  0  0999 V2000
    1.1780    1.2261   -0.5574 N   0  0  0  0  0  0  0  0  0  0  0  0
    2.1765    0.5385   -1.1978 C   0  0  0  0  0  0  0  0  0  0  0  0
    3.3267    1.2286   -1.4496 N   0  0  0  0  0  0  0  0  0  0  0  0
    3.9950    2.0953   -0.4879 C   0  0  0  0  0  0  0  0  0  0  0  0
    4.4008    1.3530    0.7864 C   0  0  0  0  0  0  0  0  0  0  0  0
    5.4183    0.2443    0.5531 C   0  0  0  0  0  0  0  0  0  0  0  0
    6.5897    0.7833   -0.0432 O   0  0  0  0  0  0  0  0  0  0  0  0
    2.0812   -0.7128   -1.5716 N   0  0  0  0  0  0  0  0  0  0  0  0
    0.8744   -1.2464   -1.2276 C   0  0  0  0  0  0  0  0  0  0  0  0
   -0.1900   -0.6330   -0.5830 C   0  0  0  0  0  0  0  0  0  0  0  0
   -1.1589   -1.6460   -0.4722 C   0  0  0  0  0  0  0  0  0  0  0  0
   -0.7576   -2.8082   -1.0037 N   0  0  0  0  0  0  0  0  0  0  0  0
    0.4836   -2.5341   -1.4645 N   0  0  0  0  0  0  0  0  0  0  0  0
    1.2377   -3.5726   -2.1198 C   0  0  0  0  0  0  0  0  0  0  0  0
   -0.0707    0.7642   -0.2126 C   0  0  0  0  0  0  0  0  0  0  0  0
   -0.9506    1.5382    0.3464 N   0  0  0  0  0  0  0  0  0  0  0  0
   -2.2252    1.0853    0.6877 C   0  0  0  0  0  0  0  0  0  0  0  0
   -3.2765    1.1761   -0.2275 C   0  0  0  0  0  0  0  0  0  0  0  0
   -4.5641    0.7510    0.1201 C   0  0  0  0  0  0  0  0  0  0  0  0
   -4.8125    0.2463    1.3968 C   0  0  0  0  0  0  0  0  0  0  0  0
   -6.0162   -0.2028    1.8646 O   0  0  0  0  0  0  0  0  0  0  0  0
   -7.1062   -0.1887    0.9515 C   0  0  0  0  0  0  0  0  0  0  0  0
   -3.7663    0.1811    2.3207 C   0  0  0  0  0  0  0  0  0  0  0  0
   -2.4816    0.6052    1.9721 C   0  0  0  0  0  0  0  0  0  0  0  0
    1.2940    2.2193   -0.4460 H   0  0  0  0  0  0  0  0  0  0  0  0
    3.9913    0.6282   -1.9339 H   0  0  0  0  0  0  0  0  0  0  0  0
    3.3403    2.9343   -0.2274 H   0  0  0  0  0  0  0  0  0  0  0  0
    4.8749    2.5364   -0.9693 H   0  0  0  0  0  0  0  0  0  0  0  0
    4.8377    2.0895    1.4722 H   0  0  0  0  0  0  0  0  0  0  0  0
    3.5188    0.9335    1.2833 H   0  0  0  0  0  0  0  0  0  0  0  0
    5.6962   -0.2117    1.5089 H   0  0  0  0  0  0  0  0  0  0  0  0
    5.0188   -0.5382   -0.0989 H   0  0  0  0  0  0  0  0  0  0  0  0
    7.2336    0.0561   -0.1122 H   0  0  0  0  0  0  0  0  0  0  0  0
   -2.1448   -1.6082   -0.0302 H   0  0  0  0  0  0  0  0  0  0  0  0
    0.6416   -3.9607   -2.9498 H   0  0  0  0  0  0  0  0  0  0  0  0
    2.1795   -3.1717   -2.5004 H   0  0  0  0  0  0  0  0  0  0  0  0
    1.4373   -4.3625   -1.3913 H   0  0  0  0  0  0  0  0  0  0  0  0
   -3.0913    1.5792   -1.2197 H   0  0  0  0  0  0  0  0  0  0  0  0
   -5.3461    0.8335   -0.6269 H   0  0  0  0  0  0  0  0  0  0  0  0
   -7.3461    0.8333    0.6400 H   0  0  0  0  0  0  0  0  0  0  0  0
   -7.9814   -0.5926    1.4695 H   0  0  0  0  0  0  0  0  0  0  0  0
   -6.9060   -0.8297    0.0865 H   0  0  0  0  0  0  0  0  0  0  0  0
   -3.9539   -0.1997    3.3216 H   0  0  0  0  0  0  0  0  0  0  0  0
   -1.6800    0.5596    2.7035 H   0  0  0  0  0  0  0  0  0  0  0  0
  1  2  1  0
  2  3  1  0
  3  4  1  0
  4  5  1  0
  5  6  1  0
  6  7  1  0
  2  8  2  0
  8  9  1  0
  9 10  2  0
 10 11  1  0
 11 12  2  0
 12 13  1  0
 13 14  1  0
 10 15  1  0
 15 16  2  3
 16 17  1  0
 17 18  2  0
 18 19  1  0
 19 20  2  0
 20 21  1  0
 21 22  1  0
 20 23  1  0
 23 24  2  0
 15  1  1  0
 24 17  1  0
 13  9  1  0
  1 25  1  0
  3 26  1  0
  4 27  1  0
  4 28  1  0
  5 29  1  0
  5 30  1  0
  6 31  1  0
  6 32  1  0
  7 33  1  0
 11 34  1  0
 14 35  1  0
 14 36  1  0
 14 37  1  0
 18 38  1  0
 19 39  1  0
 22 40  1  0
 22 41  1  0
 22 42  1  0
 23 43  1  0
 24 44  1  0
M  END
>  <ScrubInfo>  (2) 
{"isomerGroup": 0, "isomerId": 1, "confId": 0, "nr_conformers:": 1, "nr_isomers:": 9}

$$$$
_i2
     RDKit          3D

 44 46  0  0  0  0  0  0  0  0999 V2000
    1.1886    0.4654   -0.3765 N   0  0  0  0  0  0  0  0  0  0  0  0
    0.0163   -0.2329   -0.6047 C   0  0  0  0  0  0  0  0  0  0  0  0
   -1.0876    0.3958   -1.1486 N   0  0  0  0  0  0  0  0  0  0  0  0
   -2.3989    0.4154   -0.6224 C   0  0  0  0  0  0  0  0  0  0  0  0
   -2.7385   -0.0886    0.6367 C   0  0  0  0  0  0  0  0  0  0  0  0
   -4.0667   -0.0754    1.0771 C   0  0  0  0  0  0  0  0  0  0  0  0
   -5.0841    0.4305    0.2680 C   0  0  0  0  0  0  0  0  0  0  0  0
   -6.3331    0.3818    0.8200 O   0  0  0  0  0  0  0  0  0  0  0  0
   -7.4074    0.8731    0.0283 C   0  0  0  0  0  0  0  0  0  0  0  0
   -4.7606    0.9263   -0.9922 C   0  0  0  0  0  0  0  0  0  0  0  0
   -3.4301    0.9143   -1.4313 C   0  0  0  0  0  0  0  0  0  0  0  0
    0.0674   -1.5434   -0.3371 C   0  0  0  0  0  0  0  0  0  0  0  0
   -0.8032   -2.7170   -0.4699 C   0  0  0  0  0  0  0  0  0  0  0  0
   -0.2310   -3.8255   -0.0704 N   0  0  0  0  0  0  0  0  0  0  0  0
    1.0398   -3.4440    0.3929 N   0  0  0  0  0  0  0  0  0  0  0  0
    2.0412   -4.4617    0.6018 C   0  0  0  0  0  0  0  0  0  0  0  0
    1.3203   -2.0993    0.2108 C   0  0  0  0  0  0  0  0  0  0  0  0
    2.3998   -1.4323    0.4337 N   0  0  0  0  0  0  0  0  0  0  0  0
    2.3391   -0.0872    0.1452 C   0  0  0  0  0  0  0  0  0  0  0  0
    3.4299    0.5372    0.4149 N   0  0  0  0  0  0  0  0  0  0  0  0
    3.5219    1.9665    0.1581 C   0  0  0  0  0  0  0  0  0  0  0  0
    4.9149    2.4502    0.5465 C   0  0  0  0  0  0  0  0  0  0  0  0
    6.0030    1.8645   -0.3438 C   0  0  0  0  0  0  0  0  0  0  0  0
    7.2646    2.4124    0.0267 O   0  0  0  0  0  0  0  0  0  0  0  0
    1.1504    1.4635   -0.4928 H   0  0  0  0  0  0  0  0  0  0  0  0
   -0.8703    1.2689   -1.6197 H   0  0  0  0  0  0  0  0  0  0  0  0
   -1.9828   -0.4771    1.3136 H   0  0  0  0  0  0  0  0  0  0  0  0
   -4.3082   -0.4636    2.0642 H   0  0  0  0  0  0  0  0  0  0  0  0
   -8.3288    0.7597    0.6076 H   0  0  0  0  0  0  0  0  0  0  0  0
   -7.2807    1.9385   -0.1910 H   0  0  0  0  0  0  0  0  0  0  0  0
   -7.5184    0.2901   -0.8919 H   0  0  0  0  0  0  0  0  0  0  0  0
   -5.5156    1.3236   -1.6622 H   0  0  0  0  0  0  0  0  0  0  0  0
   -3.2082    1.2895   -2.4280 H   0  0  0  0  0  0  0  0  0  0  0  0
   -1.8133   -2.6333   -0.8907 H   0  0  0  0  0  0  0  0  0  0  0  0
    1.5881   -5.3746    1.0016 H   0  0  0  0  0  0  0  0  0  0  0  0
    2.5386   -4.7064   -0.3419 H   0  0  0  0  0  0  0  0  0  0  0  0
    2.7975   -4.1240    1.3176 H   0  0  0  0  0  0  0  0  0  0  0  0
    3.3354    2.1901   -0.8990 H   0  0  0  0  0  0  0  0  0  0  0  0
    2.7853    2.5076    0.7638 H   0  0  0  0  0  0  0  0  0  0  0  0
    5.1275    2.2023    1.5941 H   0  0  0  0  0  0  0  0  0  0  0  0
    4.9515    3.5448    0.4832 H   0  0  0  0  0  0  0  0  0  0  0  0
    5.8246    2.1179   -1.3935 H   0  0  0  0  0  0  0  0  0  0  0  0
    6.0616    0.7749   -0.2586 H   0  0  0  0  0  0  0  0  0  0  0  0
    7.4601    2.0813    0.9206 H   0  0  0  0  0  0  0  0  0  0  0  0
  1  2  1  0
  2  3  1  0
  3  4  1  0
  4  5  2  0
  5  6  1  0
  6  7  2  0
  7  8  1  0
  8  9  1  0
  7 10  1  0
 10 11  2  0
  2 12  2  0
 12 13  1  0
 13 14  2  0
 14 15  1  0
 15 16  1  0
 15 17  1  0
 17 18  2  0
 18 19  1  0
 19 20  2  3
 20 21  1  0
 21 22  1  0
 22 23  1  0
 23 24  1  0
 19  1  1  0
 11  4  1  0
 17 12  1  0
  1 25  1  0
  3 26  1  0
  5 27  1  0
  6 28  1  0
  9 29  1  0
  9 30  1  0
  9 31  1  0
 10 32  1  0
 11 33  1  0
 13 34  1  0
 16 35  1  0
 16 36  1  0
 16 37  1  0
 21 38  1  0
 21 39  1  0
 22 40  1  0
 22 41  1  0
 23 42  1  0
 23 43  1  0
 24 44  1  0
M  END
>  <ScrubInfo>  (3) 
{"isomerGroup": 0, "isomerId": 2, "confId": 0, "nr_conformers:": 1, "nr_isomers:": 9}

$$$$
_i3
     RDKit          3D

 44 46  0  0  0  0  0  0  0  0999 V2000
   -2.1431   -1.6002   -0.6440 N   0  0  0  0  0  0  0  0  0  0  0  0
   -1.5997   -0.4419   -0.1164 C   0  0  0  0  0  0  0  0  0  0  0  0
   -2.2478    0.6139    0.2295 N   0  0  0  0  0  0  0  0  0  0  0  0
   -3.6958    0.6561    0.0733 C   0  0  0  0  0  0  0  0  0  0  0  0
   -4.1759    2.0801    0.3580 C   0  0  0  0  0  0  0  0  0  0  0  0
   -3.8646    3.0300   -0.7926 C   0  0  0  0  0  0  0  0  0  0  0  0
   -4.7051    2.7415   -1.9075 O   0  0  0  0  0  0  0  0  0  0  0  0
   -0.2366   -0.3264    0.0960 N   0  0  0  0  0  0  0  0  0  0  0  0
    0.5749   -1.2974   -0.2029 C   0  0  0  0  0  0  0  0  0  0  0  0
    1.9410   -1.3371   -0.0542 N   0  0  0  0  0  0  0  0  0  0  0  0
    2.8116   -0.3462    0.4399 C   0  0  0  0  0  0  0  0  0  0  0  0
    2.4025    0.9175    0.8754 C   0  0  0  0  0  0  0  0  0  0  0  0
    3.3226    1.8600    1.3612 C   0  0  0  0  0  0  0  0  0  0  0  0
    4.6787    1.5539    1.4224 C   0  0  0  0  0  0  0  0  0  0  0  0
    5.6737    2.3760    1.8717 O   0  0  0  0  0  0  0  0  0  0  0  0
    5.2827    3.6697    2.3149 C   0  0  0  0  0  0  0  0  0  0  0  0
    5.1033    0.2983    0.9941 C   0  0  0  0  0  0  0  0  0  0  0  0
    4.1834   -0.6387    0.5102 C   0  0  0  0  0  0  0  0  0  0  0  0
    0.0363   -2.5234   -0.7664 C   0  0  0  0  0  0  0  0  0  0  0  0
    0.5193   -3.7638   -1.2169 C   0  0  0  0  0  0  0  0  0  0  0  0
   -0.4597   -4.5666   -1.6604 N   0  0  0  0  0  0  0  0  0  0  0  0
   -1.5842   -3.8284   -1.4946 N   0  0  0  0  0  0  0  0  0  0  0  0
   -2.8536   -4.3893   -1.8817 C   0  0  0  0  0  0  0  0  0  0  0  0
   -1.3156   -2.6089   -0.9600 C   0  0  0  0  0  0  0  0  0  0  0  0
   -3.1410   -1.6213   -0.7863 H   0  0  0  0  0  0  0  0  0  0  0  0
   -4.0082    0.3511   -0.9319 H   0  0  0  0  0  0  0  0  0  0  0  0
   -4.1584   -0.0211    0.8009 H   0  0  0  0  0  0  0  0  0  0  0  0
   -5.2602    2.0539    0.5185 H   0  0  0  0  0  0  0  0  0  0  0  0
   -3.7084    2.4531    1.2767 H   0  0  0  0  0  0  0  0  0  0  0  0
   -4.0469    4.0672   -0.4931 H   0  0  0  0  0  0  0  0  0  0  0  0
   -2.8223    2.9505   -1.1155 H   0  0  0  0  0  0  0  0  0  0  0  0
   -5.6049    3.0189   -1.6651 H   0  0  0  0  0  0  0  0  0  0  0  0
    2.4206   -2.1774   -0.3401 H   0  0  0  0  0  0  0  0  0  0  0  0
    1.3566    1.2111    0.8499 H   0  0  0  0  0  0  0  0  0  0  0  0
    2.9348    2.8213    1.6814 H   0  0  0  0  0  0  0  0  0  0  0  0
    4.8314    4.2465    1.5008 H   0  0  0  0  0  0  0  0  0  0  0  0
    6.1846    4.1990    2.6373 H   0  0  0  0  0  0  0  0  0  0  0  0
    4.6091    3.6053    3.1758 H   0  0  0  0  0  0  0  0  0  0  0  0
    6.1596    0.0445    1.0366 H   0  0  0  0  0  0  0  0  0  0  0  0
    4.5612   -1.6057    0.1882 H   0  0  0  0  0  0  0  0  0  0  0  0
    1.5351   -4.1339   -1.2489 H   0  0  0  0  0  0  0  0  0  0  0  0
   -3.0191   -5.3001   -1.3008 H   0  0  0  0  0  0  0  0  0  0  0  0
   -3.6542   -3.6737   -1.6835 H   0  0  0  0  0  0  0  0  0  0  0  0
   -2.8176   -4.6179   -2.9499 H   0  0  0  0  0  0  0  0  0  0  0  0
  1  2  1  0
  2  3  2  3
  3  4  1  0
  4  5  1  0
  5  6  1  0
  6  7  1  0
  2  8  1  0
  8  9  2  0
  9 10  1  0
 10 11  1  0
 11 12  2  0
 12 13  1  0
 13 14  2  0
 14 15  1  0
 15 16  1  0
 14 17  1  0
 17 18  2  0
  9 19  1  0
 19 20  1  0
 20 21  2  0
 21 22  1  0
 22 23  1  0
 22 24  1  0
 24  1  1  0
 18 11  1  0
 24 19  2  0
  1 25  1  0
  4 26  1  0
  4 27  1  0
  5 28  1  0
  5 29  1  0
  6 30  1  0
  6 31  1  0
  7 32  1  0
 10 33  1  0
 12 34  1  0
 13 35  1  0
 16 36  1  0
 16 37  1  0
 16 38  1  0
 17 39  1  0
 18 40  1  0
 20 41  1  0
 23 42  1  0
 23 43  1  0
 23 44  1  0
M  END
>  <ScrubInfo>  (4) 
{"isomerGroup": 0, "isomerId": 3, "confId": 0, "nr_conformers:": 1, "nr_isomers:": 9}

$$$$
_i4
     RDKit          3D

 44 46  0  0  0  0  0  0  0  0999 V2000
   -2.1662   -1.5747   -0.7002 N   0  0  0  0  0  0  0  0  0  0  0  0
   -2.4598   -0.6132    0.2391 C   0  0  0  0  0  0  0  0  0  0  0  0
   -3.8087   -0.4638    0.4119 N   0  0  0  0  0  0  0  0  0  0  0  0
   -4.3705    0.5332    1.3135 C   0  0  0  0  0  0  0  0  0  0  0  0
   -4.2463    1.9558    0.7753 C   0  0  0  0  0  0  0  0  0  0  0  0
   -5.0073    2.1684   -0.5248 C   0  0  0  0  0  0  0  0  0  0  0  0
   -4.9495    3.5370   -0.9061 O   0  0  0  0  0  0  0  0  0  0  0  0
   -1.5777    0.0794    0.8985 N   0  0  0  0  0  0  0  0  0  0  0  0
   -0.2209   -0.1128    0.6734 C   0  0  0  0  0  0  0  0  0  0  0  0
    0.5771    0.6664    1.3316 N   0  0  0  0  0  0  0  0  0  0  0  0
    1.9632    0.5983    1.2076 C   0  0  0  0  0  0  0  0  0  0  0  0
    2.6264    1.3662    0.2476 C   0  0  0  0  0  0  0  0  0  0  0  0
    4.0213    1.3232    0.1379 C   0  0  0  0  0  0  0  0  0  0  0  0
    4.7659    0.5216    1.0038 C   0  0  0  0  0  0  0  0  0  0  0  0
    6.1264    0.3854    1.0046 O   0  0  0  0  0  0  0  0  0  0  0  0
    6.8471    1.1265    0.0282 C   0  0  0  0  0  0  0  0  0  0  0  0
    4.1041   -0.2246    1.9824 C   0  0  0  0  0  0  0  0  0  0  0  0
    2.7120   -0.1800    2.0907 C   0  0  0  0  0  0  0  0  0  0  0  0
    0.1369   -1.1570   -0.2717 C   0  0  0  0  0  0  0  0  0  0  0  0
    1.3082   -1.7537   -0.7730 C   0  0  0  0  0  0  0  0  0  0  0  0
    1.0570   -2.7335   -1.6565 N   0  0  0  0  0  0  0  0  0  0  0  0
   -0.2923   -2.7701   -1.7207 N   0  0  0  0  0  0  0  0  0  0  0  0
   -0.9249   -3.7274   -2.5918 C   0  0  0  0  0  0  0  0  0  0  0  0
   -0.8653   -1.8406   -0.9130 C   0  0  0  0  0  0  0  0  0  0  0  0
   -2.9098   -2.2003   -0.9769 H   0  0  0  0  0  0  0  0  0  0  0  0
   -4.3807   -0.6567   -0.3992 H   0  0  0  0  0  0  0  0  0  0  0  0
   -5.4271    0.2927    1.4777 H   0  0  0  0  0  0  0  0  0  0  0  0
   -3.8827    0.4642    2.2930 H   0  0  0  0  0  0  0  0  0  0  0  0
   -3.1955    2.2313    0.6280 H   0  0  0  0  0  0  0  0  0  0  0  0
   -4.6282    2.6564    1.5287 H   0  0  0  0  0  0  0  0  0  0  0  0
   -4.5881    1.5709   -1.3402 H   0  0  0  0  0  0  0  0  0  0  0  0
   -6.0615    1.8984   -0.4090 H   0  0  0  0  0  0  0  0  0  0  0  0
   -4.0098    3.7858   -0.9625 H   0  0  0  0  0  0  0  0  0  0  0  0
    2.0514    2.0046   -0.4180 H   0  0  0  0  0  0  0  0  0  0  0  0
    4.4903    1.9317   -0.6275 H   0  0  0  0  0  0  0  0  0  0  0  0
    6.7105    2.2037    0.1702 H   0  0  0  0  0  0  0  0  0  0  0  0
    7.9108    0.9060    0.1591 H   0  0  0  0  0  0  0  0  0  0  0  0
    6.5663    0.8219   -0.9855 H   0  0  0  0  0  0  0  0  0  0  0  0
    4.6772   -0.8405    2.6710 H   0  0  0  0  0  0  0  0  0  0  0  0
    2.2096   -0.7515    2.8662 H   0  0  0  0  0  0  0  0  0  0  0  0
    2.3422   -1.5366   -0.5422 H   0  0  0  0  0  0  0  0  0  0  0  0
   -0.7634   -4.7256   -2.1775 H   0  0  0  0  0  0  0  0  0  0  0  0
   -1.9947   -3.5190   -2.6596 H   0  0  0  0  0  0  0  0  0  0  0  0
   -0.4732   -3.6474   -3.5839 H   0  0  0  0  0  0  0  0  0  0  0  0
  1  2  1  0
  2  3  1  0
  3  4  1  0
  4  5  1  0
  5  6  1  0
  6  7  1  0
  2  8  2  0
  8  9  1  0
  9 10  2  3
 10 11  1  0
 11 12  2  0
 12 13  1  0
 13 14  2  0
 14 15  1  0
 15 16  1  0
 14 17  1  0
 17 18  2  0
  9 19  1  0
 19 20  1  0
 20 21  2  0
 21 22  1  0
 22 23  1  0
 22 24  1  0
 24  1  1  0
 18 11  1  0
 24 19  2  0
  1 25  1  0
  3 26  1  0
  4 27  1  0
  4 28  1  0
  5 29  1  0
  5 30  1  0
  6 31  1  0
  6 32  1  0
  7 33  1  0
 12 34  1  0
 13 35  1  0
 16 36  1  0
 16 37  1  0
 16 38  1  0
 17 39  1  0
 18 40  1  0
 20 41  1  0
 23 42  1  0
 23 43  1  0
 23 44  1  0
M  END
>  <ScrubInfo>  (5) 
{"isomerGroup": 0, "isomerId": 4, "confId": 0, "nr_conformers:": 1, "nr_isomers:": 9}

$$$$
_i5
     RDKit          3D

 44 46  0  0  0  0  0  0  0  0999 V2000
   -1.3882    4.6681    0.9530 N   0  0  0  0  0  0  0  0  0  0  0  0
   -0.1477    4.0429    1.0358 C   0  0  0  0  0  0  0  0  0  0  0  0
   -0.1596    2.7978    0.5431 C   0  0  0  0  0  0  0  0  0  0  0  0
    0.7709    1.7030    0.3971 C   0  0  0  0  0  0  0  0  0  0  0  0
    2.0140    1.8024    0.7529 N   0  0  0  0  0  0  0  0  0  0  0  0
    2.8499    0.6907    0.5814 C   0  0  0  0  0  0  0  0  0  0  0  0
    3.0727   -0.1904    1.6416 C   0  0  0  0  0  0  0  0  0  0  0  0
    3.9302   -1.2871    1.4929 C   0  0  0  0  0  0  0  0  0  0  0  0
    4.5827   -1.5043    0.2789 C   0  0  0  0  0  0  0  0  0  0  0  0
    5.4421   -2.5312   -0.0006 O   0  0  0  0  0  0  0  0  0  0  0  0
    5.6904   -3.4617    1.0452 C   0  0  0  0  0  0  0  0  0  0  0  0
    4.3724   -0.6144   -0.7775 C   0  0  0  0  0  0  0  0  0  0  0  0
    3.5165    0.4798   -0.6261 C   0  0  0  0  0  0  0  0  0  0  0  0
    0.2247    0.5651   -0.1341 N   0  0  0  0  0  0  0  0  0  0  0  0
   -1.0211    0.4956   -0.5084 C   0  0  0  0  0  0  0  0  0  0  0  0
   -1.4199   -0.7053   -1.0202 N   0  0  0  0  0  0  0  0  0  0  0  0
   -2.8020   -1.1420   -1.0059 C   0  0  0  0  0  0  0  0  0  0  0  0
   -2.9344   -2.4397   -1.8011 C   0  0  0  0  0  0  0  0  0  0  0  0
   -4.3831   -2.8900   -1.9136 C   0  0  0  0  0  0  0  0  0  0  0  0
   -4.9059   -3.1640   -0.6221 O   0  0  0  0  0  0  0  0  0  0  0  0
   -1.9375    1.5140   -0.4292 N   0  0  0  0  0  0  0  0  0  0  0  0
   -1.5345    2.6354    0.0573 C   0  0  0  0  0  0  0  0  0  0  0  0
   -2.2376    3.8291    0.2335 N   0  0  0  0  0  0  0  0  0  0  0  0
   -3.6522    3.8189    0.5514 C   0  0  0  0  0  0  0  0  0  0  0  0
   -1.3286    5.6345    0.6238 H   0  0  0  0  0  0  0  0  0  0  0  0
    0.6930    4.5707    1.4640 H   0  0  0  0  0  0  0  0  0  0  0  0
    2.5706   -0.0207    2.5897 H   0  0  0  0  0  0  0  0  0  0  0  0
    4.0648   -1.9452    2.3439 H   0  0  0  0  0  0  0  0  0  0  0  0
    6.1615   -2.9735    1.9048 H   0  0  0  0  0  0  0  0  0  0  0  0
    6.3896   -4.2128    0.6652 H   0  0  0  0  0  0  0  0  0  0  0  0
    4.7719   -3.9807    1.3387 H   0  0  0  0  0  0  0  0  0  0  0  0
    4.8794   -0.7718   -1.7257 H   0  0  0  0  0  0  0  0  0  0  0  0
    3.3637    1.1671   -1.4525 H   0  0  0  0  0  0  0  0  0  0  0  0
   -0.7316   -1.4247   -0.8292 H   0  0  0  0  0  0  0  0  0  0  0  0
   -3.1269   -1.2911    0.0299 H   0  0  0  0  0  0  0  0  0  0  0  0
   -3.4438   -0.3755   -1.4557 H   0  0  0  0  0  0  0  0  0  0  0  0
   -2.3444   -3.2218   -1.3070 H   0  0  0  0  0  0  0  0  0  0  0  0
   -2.5187   -2.3059   -2.8071 H   0  0  0  0  0  0  0  0  0  0  0  0
   -4.4450   -3.8045   -2.5121 H   0  0  0  0  0  0  0  0  0  0  0  0
   -4.9996   -2.1192   -2.3871 H   0  0  0  0  0  0  0  0  0  0  0  0
   -5.8122   -3.4973   -0.7444 H   0  0  0  0  0  0  0  0  0  0  0  0
   -4.2117    3.2516   -0.1992 H   0  0  0  0  0  0  0  0  0  0  0  0
   -4.0474    4.8399    0.5615 H   0  0  0  0  0  0  0  0  0  0  0  0
   -3.8273    3.3682    1.5339 H   0  0  0  0  0  0  0  0  0  0  0  0
  1  2  1  0
  2  3  2  0
  3  4  1  0
  4  5  2  3
  5  6  1  0
  6  7  2  0
  7  8  1  0
  8  9  2  0
  9 10  1  0
 10 11  1  0
  9 12  1  0
 12 13  2  0
  4 14  1  0
 14 15  2  0
 15 16  1  0
 16 17  1  0
 17 18  1  0
 18 19  1  0
 19 20  1  0
 15 21  1  0
 21 22  2  0
 22 23  1  0
 23 24  1  0
 23  1  1  0
 22  3  1  0
 13  6  1  0
  1 25  1  0
  2 26  1  0
  7 27  1  0
  8 28  1  0
 11 29  1  0
 11 30  1  0
 11 31  1  0
 12 32  1  0
 13 33  1  0
 16 34  1  0
 17 35  1  0
 17 36  1  0
 18 37  1  0
 18 38  1  0
 19 39  1  0
 19 40  1  0
 20 41  1  0
 24 42  1  0
 24 43  1  0
 24 44  1  0
M  END
>  <ScrubInfo>  (6) 
{"isomerGroup": 0, "isomerId": 5, "confId": 0, "nr_conformers:": 1, "nr_isomers:": 9}

$$$$
_i6
     RDKit          3D

 44 46  0  0  0  0  0  0  0  0999 V2000
   -0.9288    4.5185    0.7298 N   0  0  0  0  0  0  0  0  0  0  0  0
    0.1864    3.6930    0.6358 C   0  0  0  0  0  0  0  0  0  0  0  0
   -0.1255    2.4245    0.3343 C   0  0  0  0  0  0  0  0  0  0  0  0
    0.5616    1.1434    0.1348 C   0  0  0  0  0  0  0  0  0  0  0  0
    1.9419    1.1019    0.2235 N   0  0  0  0  0  0  0  0  0  0  0  0
    2.8289    0.0148    0.0964 C   0  0  0  0  0  0  0  0  0  0  0  0
    2.4394   -1.3027   -0.1507 C   0  0  0  0  0  0  0  0  0  0  0  0
    3.3870   -2.3285   -0.2708 C   0  0  0  0  0  0  0  0  0  0  0  0
    4.7496   -2.0646   -0.1494 C   0  0  0  0  0  0  0  0  0  0  0  0
    5.5627   -3.1538   -0.2880 O   0  0  0  0  0  0  0  0  0  0  0  0
    6.9617   -2.9328   -0.1676 C   0  0  0  0  0  0  0  0  0  0  0  0
    5.1591   -0.7579    0.0939 C   0  0  0  0  0  0  0  0  0  0  0  0
    4.2079    0.2659    0.2136 C   0  0  0  0  0  0  0  0  0  0  0  0
   -0.1906    0.1124   -0.1175 N   0  0  0  0  0  0  0  0  0  0  0  0
   -1.5582    0.2426   -0.1752 C   0  0  0  0  0  0  0  0  0  0  0  0
   -2.1768   -0.8712   -0.3557 N   0  0  0  0  0  0  0  0  0  0  0  0
   -3.6339   -0.8337   -0.4347 C   0  0  0  0  0  0  0  0  0  0  0  0
   -4.1356   -2.2630   -0.6148 C   0  0  0  0  0  0  0  0  0  0  0  0
   -5.6486   -2.3045   -0.7669 C   0  0  0  0  0  0  0  0  0  0  0  0
   -6.0948   -3.6489   -0.8998 O   0  0  0  0  0  0  0  0  0  0  0  0
   -2.2804    1.4091   -0.0662 N   0  0  0  0  0  0  0  0  0  0  0  0
   -1.5945    2.4719    0.1693 C   0  0  0  0  0  0  0  0  0  0  0  0
   -2.0378    3.7862    0.3212 N   0  0  0  0  0  0  0  0  0  0  0  0
   -3.3323    4.0732    0.9105 C   0  0  0  0  0  0  0  0  0  0  0  0
   -0.8062    5.4312    0.2842 H   0  0  0  0  0  0  0  0  0  0  0  0
    1.1627    4.1220    0.8052 H   0  0  0  0  0  0  0  0  0  0  0  0
    2.4092    1.9721    0.4358 H   0  0  0  0  0  0  0  0  0  0  0  0
    1.3941   -1.5777   -0.2556 H   0  0  0  0  0  0  0  0  0  0  0  0
    3.0479   -3.3441   -0.4618 H   0  0  0  0  0  0  0  0  0  0  0  0
    7.4651   -3.8953   -0.3003 H   0  0  0  0  0  0  0  0  0  0  0  0
    7.2180   -2.5576    0.8287 H   0  0  0  0  0  0  0  0  0  0  0  0
    7.3234   -2.2573   -0.9499 H   0  0  0  0  0  0  0  0  0  0  0  0
    6.2067   -0.4965    0.1955 H   0  0  0  0  0  0  0  0  0  0  0  0
    4.5683    1.2744    0.4017 H   0  0  0  0  0  0  0  0  0  0  0  0
   -4.0646   -0.4145    0.4829 H   0  0  0  0  0  0  0  0  0  0  0  0
   -3.9565   -0.2264   -1.2893 H   0  0  0  0  0  0  0  0  0  0  0  0
   -3.8320   -2.8836    0.2379 H   0  0  0  0  0  0  0  0  0  0  0  0
   -3.6644   -2.7227   -1.4930 H   0  0  0  0  0  0  0  0  0  0  0  0
   -6.1423   -1.8726    0.1091 H   0  0  0  0  0  0  0  0  0  0  0  0
   -5.9725   -1.7472   -1.6518 H   0  0  0  0  0  0  0  0  0  0  0  0
   -5.5755   -4.0584   -1.6132 H   0  0  0  0  0  0  0  0  0  0  0  0
   -4.1268    3.5505    0.3683 H   0  0  0  0  0  0  0  0  0  0  0  0
   -3.5435    5.1462    0.8605 H   0  0  0  0  0  0  0  0  0  0  0  0
   -3.3596    3.7614    1.9598 H   0  0  0  0  0  0  0  0  0  0  0  0
  1  2  1  0
  2  3  2  0
  3  4  1  0
  4  5  1  0
  5  6  1  0
  6  7  2  0
  7  8  1  0
  8  9  2  0
  9 10  1  0
 10 11  1  0
  9 12  1  0
 12 13  2  0
  4 14  2  0
 14 15  1  0
 15 16  2  3
 16 17  1  0
 17 18  1  0
 18 19  1  0
 19 20  1  0
 15 21  1  0
 21 22  2  0
 22 23  1  0
 23 24  1  0
 23  1  1  0
 22  3  1  0
 13  6  1  0
  1 25  1  0
  2 26  1  0
  5 27  1  0
  7 28  1  0
  8 29  1  0
 11 30  1  0
 11 31  1  0
 11 32  1  0
 12 33  1  0
 13 34  1  0
 17 35  1  0
 17 36  1  0
 18 37  1  0
 18 38  1  0
 19 39  1  0
 19 40  1  0
 20 41  1  0
 24 42  1  0
 24 43  1  0
 24 44  1  0
M  END
>  <ScrubInfo>  (7) 
{"isomerGroup": 0, "isomerId": 6, "confId": 0, "nr_conformers:": 1, "nr_isomers:": 9}

$$$$
_i7
     RDKit          3D

 44 46  0  0  0  0  0  0  0  0999 V2000
   -2.0955   -0.8282   -0.5598 N   0  0  0  0  0  0  0  0  0  0  0  0
   -2.2837    0.0093    0.5270 C   0  0  0  0  0  0  0  0  0  0  0  0
   -3.4011    0.3923    1.0482 N   0  0  0  0  0  0  0  0  0  0  0  0
   -4.6440   -0.0959    0.4582 C   0  0  0  0  0  0  0  0  0  0  0  0
   -5.8291    0.4481    1.2540 C   0  0  0  0  0  0  0  0  0  0  0  0
   -5.9098    1.9699    1.2812 C   0  0  0  0  0  0  0  0  0  0  0  0
   -5.9540    2.5018   -0.0366 O   0  0  0  0  0  0  0  0  0  0  0  0
   -1.1052    0.4619    1.0774 N   0  0  0  0  0  0  0  0  0  0  0  0
    0.2129    0.2306    0.7474 C   0  0  0  0  0  0  0  0  0  0  0  0
    1.1780    0.7776    1.4236 N   0  0  0  0  0  0  0  0  0  0  0  0
    2.5211    0.5639    1.1143 C   0  0  0  0  0  0  0  0  0  0  0  0
    3.1904    1.4260    0.2427 C   0  0  0  0  0  0  0  0  0  0  0  0
    4.5464    1.2357   -0.0480 C   0  0  0  0  0  0  0  0  0  0  0  0
    5.2483    0.1872    0.5474 C   0  0  0  0  0  0  0  0  0  0  0  0
    6.5679   -0.1120    0.3510 O   0  0  0  0  0  0  0  0  0  0  0  0
    7.2863    0.7138   -0.5568 C   0  0  0  0  0  0  0  0  0  0  0  0
    4.5848   -0.6587    1.4399 C   0  0  0  0  0  0  0  0  0  0  0  0
    3.2315   -0.4673    1.7293 C   0  0  0  0  0  0  0  0  0  0  0  0
    0.3095   -0.6592   -0.3979 C   0  0  0  0  0  0  0  0  0  0  0  0
    1.3304   -1.2493   -1.1663 C   0  0  0  0  0  0  0  0  0  0  0  0
    0.8575   -2.0245   -2.1539 N   0  0  0  0  0  0  0  0  0  0  0  0
   -0.4828   -1.9319   -2.0235 N   0  0  0  0  0  0  0  0  0  0  0  0
   -1.3306   -2.6599   -2.9339 C   0  0  0  0  0  0  0  0  0  0  0  0
   -0.8465   -1.1318   -0.9836 C   0  0  0  0  0  0  0  0  0  0  0  0
   -2.9233   -1.2018   -1.0038 H   0  0  0  0  0  0  0  0  0  0  0  0
   -4.7243    0.2130   -0.5906 H   0  0  0  0  0  0  0  0  0  0  0  0
   -4.6782   -1.1914    0.4957 H   0  0  0  0  0  0  0  0  0  0  0  0
   -6.7462    0.0531    0.8001 H   0  0  0  0  0  0  0  0  0  0  0  0
   -5.7875    0.0759    2.2844 H   0  0  0  0  0  0  0  0  0  0  0  0
   -6.8245    2.2800    1.7964 H   0  0  0  0  0  0  0  0  0  0  0  0
   -5.0637    2.4145    1.8157 H   0  0  0  0  0  0  0  0  0  0  0  0
   -5.0312    2.5370   -0.3459 H   0  0  0  0  0  0  0  0  0  0  0  0
   -1.2286    1.0692    1.8748 H   0  0  0  0  0  0  0  0  0  0  0  0
    2.6519    2.2526   -0.2130 H   0  0  0  0  0  0  0  0  0  0  0  0
    5.0212    1.9266   -0.7363 H   0  0  0  0  0  0  0  0  0  0  0  0
    8.3135    0.3399   -0.6076 H   0  0  0  0  0  0  0  0  0  0  0  0
    7.3260    1.7489   -0.2016 H   0  0  0  0  0  0  0  0  0  0  0  0
    6.8610    0.6568   -1.5642 H   0  0  0  0  0  0  0  0  0  0  0  0
    5.1274   -1.4704    1.9183 H   0  0  0  0  0  0  0  0  0  0  0  0
    2.7313   -1.1237    2.4356 H   0  0  0  0  0  0  0  0  0  0  0  0
    2.4036   -1.1626   -1.0648 H   0  0  0  0  0  0  0  0  0  0  0  0
   -1.5026   -3.6545   -2.5160 H   0  0  0  0  0  0  0  0  0  0  0  0
   -2.2766   -2.1271   -3.0544 H   0  0  0  0  0  0  0  0  0  0  0  0
   -0.8321   -2.7355   -3.9040 H   0  0  0  0  0  0  0  0  0  0  0  0
  1  2  1  0
  2  3  2  3
  3  4  1  0
  4  5  1  0
  5  6  1  0
  6  7  1  0
  2  8  1  0
  8  9  1  0
  9 10  2  3
 10 11  1  0
 11 12  2  0
 12 13  1  0
 13 14  2  0
 14 15  1  0
 15 16  1  0
 14 17  1  0
 17 18  2  0
  9 19  1  0
 19 20  1  0
 20 21  2  0
 21 22  1  0
 22 23  1  0
 22 24  1  0
 24  1  1  0
 18 11  1  0
 24 19  2  0
  1 25  1  0
  4 26  1  0
  4 27  1  0
  5 28  1  0
  5 29  1  0
  6 30  1  0
  6 31  1  0
  7 32  1  0
  8 33  1  0
 12 34  1  0
 13 35  1  0
 16 36  1  0
 16 37  1  0
 16 38  1  0
 17 39  1  0
 18 40  1  0
 20 41  1  0
 23 42  1  0
 23 43  1  0
 23 44  1  0
M  END
>  <ScrubInfo>  (8) 
{"isomerGroup": 0, "isomerId": 7, "confId": 0, "nr_conformers:": 1, "nr_isomers:": 9}

$$$$
_i8
     RDKit          3D

 44 46  0  0  0  0  0  0  0  0999 V2000
   -0.8606    4.7489    0.9557 N   0  0  0  0  0  0  0  0  0  0  0  0
    0.3004    4.0104    0.7552 C   0  0  0  0  0  0  0  0  0  0  0  0
    0.0575    2.7580    0.3514 C   0  0  0  0  0  0  0  0  0  0  0  0
    0.8212    1.5505    0.0289 C   0  0  0  0  0  0  0  0  0  0  0  0
    2.1198    1.5856    0.0757 N   0  0  0  0  0  0  0  0  0  0  0  0
    2.8320    0.4207   -0.2325 C   0  0  0  0  0  0  0  0  0  0  0  0
    3.2104   -0.4607    0.7818 C   0  0  0  0  0  0  0  0  0  0  0  0
    3.9188   -1.6304    0.4832 C   0  0  0  0  0  0  0  0  0  0  0  0
    4.2626   -1.9212   -0.8373 C   0  0  0  0  0  0  0  0  0  0  0  0
    4.9470   -3.0240   -1.2666 O   0  0  0  0  0  0  0  0  0  0  0  0
    5.3707   -3.9466   -0.2708 C   0  0  0  0  0  0  0  0  0  0  0  0
    3.8970   -1.0304   -1.8499 C   0  0  0  0  0  0  0  0  0  0  0  0
    3.1915    0.1373   -1.5498 C   0  0  0  0  0  0  0  0  0  0  0  0
    0.0063    0.4934   -0.2894 N   0  0  0  0  0  0  0  0  0  0  0  0
   -1.3631    0.4979   -0.3251 C   0  0  0  0  0  0  0  0  0  0  0  0
   -1.9671   -0.6089   -0.6166 N   0  0  0  0  0  0  0  0  0  0  0  0
   -3.4338   -0.5750   -0.6469 C   0  0  0  0  0  0  0  0  0  0  0  0
   -3.9509   -1.9653   -1.0186 C   0  0  0  0  0  0  0  0  0  0  0  0
   -3.7506   -2.9838    0.0957 C   0  0  0  0  0  0  0  0  0  0  0  0
   -4.6100   -2.6830    1.1898 O   0  0  0  0  0  0  0  0  0  0  0  0
   -2.0942    1.6404   -0.0663 N   0  0  0  0  0  0  0  0  0  0  0  0
   -1.4339    2.7136    0.2388 C   0  0  0  0  0  0  0  0  0  0  0  0
   -1.9424    3.9841    0.5226 N   0  0  0  0  0  0  0  0  0  0  0  0
   -3.2260    4.1427    1.1794 C   0  0  0  0  0  0  0  0  0  0  0  0
   -0.8043    5.6991    0.5820 H   0  0  0  0  0  0  0  0  0  0  0  0
    1.2645    4.4681    0.9275 H   0  0  0  0  0  0  0  0  0  0  0  0
    2.9537   -0.2328    1.8131 H   0  0  0  0  0  0  0  0  0  0  0  0
    4.1885   -2.2859    1.3043 H   0  0  0  0  0  0  0  0  0  0  0  0
    6.0627   -3.4757    0.4353 H   0  0  0  0  0  0  0  0  0  0  0  0
    4.5134   -4.3871    0.2489 H   0  0  0  0  0  0  0  0  0  0  0  0
    5.9078   -4.7570   -0.7728 H   0  0  0  0  0  0  0  0  0  0  0  0
    4.1699   -1.2442   -2.8805 H   0  0  0  0  0  0  0  0  0  0  0  0
    2.9243    0.8277   -2.3450 H   0  0  0  0  0  0  0  0  0  0  0  0
    0.4255   -0.3965   -0.5124 H   0  0  0  0  0  0  0  0  0  0  0  0
   -3.8443   -0.2667    0.3218 H   0  0  0  0  0  0  0  0  0  0  0  0
   -3.7747    0.1314   -1.4139 H   0  0  0  0  0  0  0  0  0  0  0  0
   -5.0217   -1.8854   -1.2412 H   0  0  0  0  0  0  0  0  0  0  0  0
   -3.4446   -2.3160   -1.9256 H   0  0  0  0  0  0  0  0  0  0  0  0
   -2.7152   -2.9986    0.4499 H   0  0  0  0  0  0  0  0  0  0  0  0
   -4.0082   -3.9844   -0.2659 H   0  0  0  0  0  0  0  0  0  0  0  0
   -4.3958   -3.3160    1.8958 H   0  0  0  0  0  0  0  0  0  0  0  0
   -4.0120    3.6252    0.6201 H   0  0  0  0  0  0  0  0  0  0  0  0
   -3.4973    5.2019    1.2340 H   0  0  0  0  0  0  0  0  0  0  0  0
   -3.1948    3.7385    2.1966 H   0  0  0  0  0  0  0  0  0  0  0  0
  1  2  1  0
  2  3  2  0
  3  4  1  0
  4  5  2  3
  5  6  1  0
  6  7  2  0
  7  8  1  0
  8  9  2  0
  9 10  1  0
 10 11  1  0
  9 12  1  0
 12 13  2  0
  4 14  1  0
 14 15  1  0
 15 16  2  3
 16 17  1  0
 17 18  1  0
 18 19  1  0
 19 20  1  0
 15 21  1  0
 21 22  2  0
 22 23  1  0
 23 24  1  0
 23  1  1  0
 22  3  1  0
 13  6  1  0
  1 25  1  0
  2 26  1  0
  7 27  1  0
  8 28  1  0
 11 29  1  0
 11 30  1  0
 11 31  1  0
 12 32  1  0
 13 33  1  0
 14 34  1  0
 17 35  1  0
 17 36  1  0
 18 37  1  0
 18 38  1  0
 19 39  1  0
 19 40  1  0
 20 41  1  0
 24 42  1  0
 24 43  1  0
 24 44  1  0
M  END
>  <ScrubInfo>  (9) 
{"isomerGroup": 0, "isomerId": 8, "confId": 0, "nr_conformers:": 1, "nr_isomers:": 9}

$$$$
