REMARK SMILES COc1ccc(Nc2nc(NCCCO)nc3c2cnn3C)cc1
REMARK SMILES IDX 11 1 10 3 8 4 9 5 18 6 17 7 19 8 16 9 21 10 20 11 22 12 7 13
REMARK SMILES IDX 6 15 3 16 4 17 24 18 5 19 23 20 2 21 1 22 12 23 13 24 14 25
REMARK SMILES IDX 15 26
REMARK H PARENT 11 2 7 14 15 27
ROOT
ATOM      1  N   UNL     1      -2.394  -1.122  -0.992  1.00  0.00    -0.354 N 
ATOM      2  H   UNL     1      -3.280  -1.571  -0.781  1.00  0.00     0.163 HD
ENDROOT
BRANCH   1   3
ATOM      3  C   UNL     1      -1.519  -1.568  -0.004  1.00  0.00     0.226 A 
ATOM      4  C   UNL     1       0.521  -1.330   1.150  1.00  0.00     0.147 A 
ATOM      5  N   UNL     1      -0.357  -0.919   0.199  1.00  0.00    -0.195 NA
ATOM      6  C   UNL     1       0.148  -2.449   1.906  1.00  0.00     0.082 A 
ATOM      7  C   UNL     1      -1.066  -3.038   1.611  1.00  0.00     0.165 A 
ATOM      8  C   UNL     1       0.668  -3.232   2.959  1.00  0.00     0.149 A 
ATOM      9  N   UNL     1      -1.938  -2.644   0.672  1.00  0.00    -0.193 NA
ATOM     10  N   UNL     1      -1.192  -4.096   2.469  1.00  0.00    -0.250 N 
ATOM     11  N   UNL     1      -0.142  -4.236   3.313  1.00  0.00    -0.179 NA
ATOM     12  C   UNL     1      -2.292  -5.024   2.546  1.00  0.00     0.176 C 
BRANCH   4  13
ATOM     13  N   UNL     1       1.727  -0.655   1.390  1.00  0.00    -0.339 N 
ATOM     14  H   UNL     1       2.250  -1.020   2.173  1.00  0.00     0.168 HD
BRANCH  13  15
ATOM     15  C   UNL     1       2.381   0.382   0.702  1.00  0.00     0.040 A 
ATOM     16  C   UNL     1       3.746   2.526  -0.556  1.00  0.00     0.119 A 
ATOM     17  C   UNL     1       2.652   1.926  -1.173  1.00  0.00     0.048 A 
ATOM     18  C   UNL     1       4.153   2.061   0.693  1.00  0.00     0.048 A 
ATOM     19  C   UNL     1       1.977   0.868  -0.544  1.00  0.00     0.030 A 
ATOM     20  C   UNL     1       3.478   1.005   1.315  1.00  0.00     0.030 A 
BRANCH  16  21
ATOM     21  O   UNL     1       4.489   3.559  -1.055  1.00  0.00    -0.497 OA
ATOM     22  C   UNL     1       4.116   4.056  -2.334  1.00  0.00     0.278 C 
ENDBRANCH  16  21
ENDBRANCH  13  15
ENDBRANCH   4  13
ENDBRANCH   1   3
BRANCH   1  23
ATOM     23  C   UNL     1      -2.469   0.329  -1.101  1.00  0.00     0.118 C 
BRANCH  23  24
ATOM     24  C   UNL     1      -3.486   0.694  -2.183  1.00  0.00     0.049 C 
BRANCH  24  25
ATOM     25  C   UNL     1      -3.561   2.197  -2.405  1.00  0.00     0.158 C 
BRANCH  25  26
ATOM     26  O   UNL     1      -4.032   2.835  -1.227  1.00  0.00    -0.396 OA
ATOM     27  H   UNL     1      -4.082   3.788  -1.417  1.00  0.00     0.210 HD
ENDBRANCH  25  26
ENDBRANCH  24  25
ENDBRANCH  23  24
ENDBRANCH   1  23
TORSDOF 8
