_i0
     RDKit          3D

 43 45  0  0  0  0  0  0  0  0999 V2000
    6.3192    0.8721    2.0899 C   0  0  0  0  0  0  0  0  0  0  0  0
    5.0218    1.2614    1.4347 C   0  0  0  0  0  0  0  0  0  0  0  0
    4.8795    2.3298    0.8497 O   0  0  0  0  0  0  0  0  0  0  0  0
    4.0303    0.3143    1.5321 N   0  0  0  0  0  0  0  0  0  0  0  0
    2.7256    0.5168    0.9265 C   0  0  0  0  0  0  0  0  0  0  0  0
    2.7325    0.3113   -0.5988 C   0  0  0  0  0  0  0  0  0  0  0  0
    1.4265    0.5386   -1.2009 N   0  0  0  0  0  0  0  0  0  0  0  0
    0.4212   -0.3584   -0.8804 C   0  0  0  0  0  0  0  0  0  0  0  0
   -0.8073    0.1825   -0.8075 N   0  0  0  0  0  0  0  0  0  0  0  0
   -1.8914   -0.5788   -0.5036 C   0  0  0  0  0  0  0  0  0  0  0  0
   -3.1790   -0.0369   -0.4135 N   0  0  0  0  0  0  0  0  0  0  0  0
   -3.7030    1.2536   -0.6374 C   0  0  0  0  0  0  0  0  0  0  0  0
   -2.9423    2.3190   -1.1323 C   0  0  0  0  0  0  0  0  0  0  0  0
   -3.5053    3.5866   -1.3267 C   0  0  0  0  0  0  0  0  0  0  0  0
   -4.8451    3.8162   -1.0273 C   0  0  0  0  0  0  0  0  0  0  0  0
   -5.6270    2.7765   -0.5335 C   0  0  0  0  0  0  0  0  0  0  0  0
   -5.0603    1.5126   -0.3417 C   0  0  0  0  0  0  0  0  0  0  0  0
   -6.0792    0.2519    0.2755 Cl  0  0  0  0  0  0  0  0  0  0  0  0
   -1.6575   -1.9392   -0.2653 C   0  0  0  0  0  0  0  0  0  0  0  0
   -2.3966   -3.0933    0.0704 C   0  0  0  0  0  0  0  0  0  0  0  0
   -1.6337   -4.1867    0.1807 N   0  0  0  0  0  0  0  0  0  0  0  0
   -0.3924   -3.7265   -0.0997 N   0  0  0  0  0  0  0  0  0  0  0  0
    0.7199   -4.6428   -0.1000 C   0  0  0  0  0  0  0  0  0  0  0  0
   -0.3539   -2.3841   -0.3609 C   0  0  0  0  0  0  0  0  0  0  0  0
    0.7239   -1.6431   -0.6537 N   0  0  0  0  0  0  0  0  0  0  0  0
    6.6778    1.7079    2.6970 H   0  0  0  0  0  0  0  0  0  0  0  0
    7.0537    0.6354    1.3158 H   0  0  0  0  0  0  0  0  0  0  0  0
    6.1974    0.0031    2.7424 H   0  0  0  0  0  0  0  0  0  0  0  0
    4.2378   -0.5897    1.9361 H   0  0  0  0  0  0  0  0  0  0  0  0
    2.0415   -0.1832    1.4169 H   0  0  0  0  0  0  0  0  0  0  0  0
    2.3860    1.5321    1.1638 H   0  0  0  0  0  0  0  0  0  0  0  0
    3.1149   -0.6865   -0.8494 H   0  0  0  0  0  0  0  0  0  0  0  0
    3.4346    1.0176   -1.0567 H   0  0  0  0  0  0  0  0  0  0  0  0
    1.0472    1.4715   -1.0785 H   0  0  0  0  0  0  0  0  0  0  0  0
   -3.8913   -0.6971   -0.1223 H   0  0  0  0  0  0  0  0  0  0  0  0
   -1.8963    2.1871   -1.3896 H   0  0  0  0  0  0  0  0  0  0  0  0
   -2.8887    4.3937   -1.7161 H   0  0  0  0  0  0  0  0  0  0  0  0
   -5.2774    4.8017   -1.1800 H   0  0  0  0  0  0  0  0  0  0  0  0
   -6.6732    2.9535   -0.2998 H   0  0  0  0  0  0  0  0  0  0  0  0
   -3.4614   -3.1863    0.2404 H   0  0  0  0  0  0  0  0  0  0  0  0
    1.6425   -4.1124   -0.3460 H   0  0  0  0  0  0  0  0  0  0  0  0
    0.8013   -5.0847    0.8963 H   0  0  0  0  0  0  0  0  0  0  0  0
    0.5273   -5.4170   -0.8470 H   0  0  0  0  0  0  0  0  0  0  0  0
  1  2  1  0
  2  3  2  0
  2  4  1  0
  4  5  1  0
  5  6  1  0
  6  7  1  0
  7  8  1  0
  8  9  2  0
  9 10  1  0
 10 11  1  0
 11 12  1  0
 12 13  2  0
 13 14  1  0
 14 15  2  0
 15 16  1  0
 16 17  2  0
 17 18  1  0
 10 19  2  0
 19 20  1  0
 20 21  2  0
 21 22  1  0
 22 23  1  0
 22 24  1  0
 24 25  2  0
 25  8  1  0
 17 12  1  0
 24 19  1  0
  1 26  1  0
  1 27  1  0
  1 28  1  0
  4 29  1  0
  5 30  1  0
  5 31  1  0
  6 32  1  0
  6 33  1  0
  7 34  1  0
 11 35  1  0
 13 36  1  0
 14 37  1  0
 15 38  1  0
 16 39  1  0
 20 40  1  0
 23 41  1  0
 23 42  1  0
 23 43  1  0
M  END
>  <ScrubInfo>  (1) 
{"isomerGroup": 0, "isomerId": 0, "confId": 0, "nr_conformers:": 1, "nr_isomers:": 9}

$$$$
_i1
     RDKit          3D

 43 45  0  0  0  0  0  0  0  0999 V2000
   -0.9742    0.5354    0.1383 N   0  0  0  0  0  0  0  0  0  0  0  0
   -2.0455   -0.3231    0.2905 C   0  0  0  0  0  0  0  0  0  0  0  0
   -3.3043    0.0898    0.6782 N   0  0  0  0  0  0  0  0  0  0  0  0
   -3.9146    1.3614    0.6130 C   0  0  0  0  0  0  0  0  0  0  0  0
   -3.4741    2.3694   -0.2562 C   0  0  0  0  0  0  0  0  0  0  0  0
   -4.0725    3.6344   -0.2595 C   0  0  0  0  0  0  0  0  0  0  0  0
   -5.1234    3.9174    0.6089 C   0  0  0  0  0  0  0  0  0  0  0  0
   -5.5848    2.9328    1.4787 C   0  0  0  0  0  0  0  0  0  0  0  0
   -4.9858    1.6699    1.4793 C   0  0  0  0  0  0  0  0  0  0  0  0
   -5.5998    0.4772    2.5761 Cl  0  0  0  0  0  0  0  0  0  0  0  0
   -1.7586   -1.6125    0.0701 C   0  0  0  0  0  0  0  0  0  0  0  0
   -2.4696   -2.8955    0.0532 C   0  0  0  0  0  0  0  0  0  0  0  0
   -1.7062   -3.9013   -0.2916 N   0  0  0  0  0  0  0  0  0  0  0  0
   -0.4264   -3.3532   -0.4775 N   0  0  0  0  0  0  0  0  0  0  0  0
    0.5710   -4.1336   -1.1688 C   0  0  0  0  0  0  0  0  0  0  0  0
   -0.3789   -1.9768   -0.3240 C   0  0  0  0  0  0  0  0  0  0  0  0
    0.6026   -1.1535   -0.4768 N   0  0  0  0  0  0  0  0  0  0  0  0
    0.2981    0.1624   -0.2059 C   0  0  0  0  0  0  0  0  0  0  0  0
    1.2143    1.0708   -0.2498 N   0  0  0  0  0  0  0  0  0  0  0  0
    2.5747    0.6737   -0.6283 C   0  0  0  0  0  0  0  0  0  0  0  0
    3.3577    0.1861    0.5945 C   0  0  0  0  0  0  0  0  0  0  0  0
    4.6612   -0.3495    0.2429 N   0  0  0  0  0  0  0  0  0  0  0  0
    5.7362    0.4684   -0.0124 C   0  0  0  0  0  0  0  0  0  0  0  0
    6.9770   -0.2662   -0.4443 C   0  0  0  0  0  0  0  0  0  0  0  0
    5.7061    1.6904    0.0828 O   0  0  0  0  0  0  0  0  0  0  0  0
   -1.0865    1.4876    0.4532 H   0  0  0  0  0  0  0  0  0  0  0  0
   -3.9150   -0.6215    1.0733 H   0  0  0  0  0  0  0  0  0  0  0  0
   -2.6835    2.1794   -0.9777 H   0  0  0  0  0  0  0  0  0  0  0  0
   -3.7179    4.3976   -0.9493 H   0  0  0  0  0  0  0  0  0  0  0  0
   -5.5855    4.9016    0.6035 H   0  0  0  0  0  0  0  0  0  0  0  0
   -6.4078    3.1535    2.1534 H   0  0  0  0  0  0  0  0  0  0  0  0
   -3.5401   -2.9559    0.2870 H   0  0  0  0  0  0  0  0  0  0  0  0
    0.4512   -4.0314   -2.2518 H   0  0  0  0  0  0  0  0  0  0  0  0
    1.5797   -3.8063   -0.8973 H   0  0  0  0  0  0  0  0  0  0  0  0
    0.4831   -5.1934   -0.9087 H   0  0  0  0  0  0  0  0  0  0  0  0
    3.0746    1.5507   -1.0564 H   0  0  0  0  0  0  0  0  0  0  0  0
    2.5806   -0.0780   -1.4278 H   0  0  0  0  0  0  0  0  0  0  0  0
    3.4908    1.0097    1.3056 H   0  0  0  0  0  0  0  0  0  0  0  0
    2.8198   -0.6138    1.1137 H   0  0  0  0  0  0  0  0  0  0  0  0
    4.7113   -1.3273   -0.0081 H   0  0  0  0  0  0  0  0  0  0  0  0
    7.8368    0.1330    0.1008 H   0  0  0  0  0  0  0  0  0  0  0  0
    6.9064   -1.3369   -0.2332 H   0  0  0  0  0  0  0  0  0  0  0  0
    7.1216   -0.1232   -1.5183 H   0  0  0  0  0  0  0  0  0  0  0  0
  1  2  1  0
  2  3  1  0
  3  4  1  0
  4  5  2  0
  5  6  1  0
  6  7  2  0
  7  8  1  0
  8  9  2  0
  9 10  1  0
  2 11  2  0
 11 12  1  0
 12 13  2  0
 13 14  1  0
 14 15  1  0
 14 16  1  0
 16 17  2  0
 17 18  1  0
 18 19  2  3
 19 20  1  0
 20 21  1  0
 21 22  1  0
 22 23  1  0
 23 24  1  0
 23 25  2  0
 18  1  1  0
  9  4  1  0
 16 11  1  0
  1 26  1  0
  3 27  1  0
  5 28  1  0
  6 29  1  0
  7 30  1  0
  8 31  1  0
 12 32  1  0
 15 33  1  0
 15 34  1  0
 15 35  1  0
 20 36  1  0
 20 37  1  0
 21 38  1  0
 21 39  1  0
 22 40  1  0
 24 41  1  0
 24 42  1  0
 24 43  1  0
M  END
>  <ScrubInfo>  (2) 
{"isomerGroup": 0, "isomerId": 1, "confId": 0, "nr_conformers:": 1, "nr_isomers:": 9}

$$$$
_i2
     RDKit          3D

 43 45  0  0  0  0  0  0  0  0999 V2000
   -0.8627    0.1695   -0.3193 N   0  0  0  0  0  0  0  0  0  0  0  0
    0.2173    1.0030   -0.5226 C   0  0  0  0  0  0  0  0  0  0  0  0
    1.1325    0.4639   -1.3855 N   0  0  0  0  0  0  0  0  0  0  0  0
    2.4081    1.1270   -1.6581 C   0  0  0  0  0  0  0  0  0  0  0  0
    3.3595    1.0522   -0.4530 C   0  0  0  0  0  0  0  0  0  0  0  0
    3.5229   -0.2922    0.0870 N   0  0  0  0  0  0  0  0  0  0  0  0
    4.2147   -1.2639   -0.5939 C   0  0  0  0  0  0  0  0  0  0  0  0
    4.3963   -2.5498    0.1663 C   0  0  0  0  0  0  0  0  0  0  0  0
    4.6425   -1.1130   -1.7331 O   0  0  0  0  0  0  0  0  0  0  0  0
    0.3575    2.1754    0.0426 N   0  0  0  0  0  0  0  0  0  0  0  0
   -0.6916    2.4668    0.8615 C   0  0  0  0  0  0  0  0  0  0  0  0
   -1.8091    1.6981    1.1195 C   0  0  0  0  0  0  0  0  0  0  0  0
   -2.5748    2.4474    2.0227 C   0  0  0  0  0  0  0  0  0  0  0  0
   -1.9918    3.6126    2.3356 N   0  0  0  0  0  0  0  0  0  0  0  0
   -0.8519    3.6061    1.6002 N   0  0  0  0  0  0  0  0  0  0  0  0
    0.0352    4.7396    1.6642 C   0  0  0  0  0  0  0  0  0  0  0  0
   -1.9635    0.4201    0.4733 C   0  0  0  0  0  0  0  0  0  0  0  0
   -3.0335   -0.2637    0.7054 N   0  0  0  0  0  0  0  0  0  0  0  0
   -3.1821   -1.5100    0.0716 C   0  0  0  0  0  0  0  0  0  0  0  0
   -2.9068   -2.6654    0.8129 C   0  0  0  0  0  0  0  0  0  0  0  0
   -3.0460   -3.9327    0.2424 C   0  0  0  0  0  0  0  0  0  0  0  0
   -3.4736   -4.0595   -1.0777 C   0  0  0  0  0  0  0  0  0  0  0  0
   -3.7680   -2.9198   -1.8263 C   0  0  0  0  0  0  0  0  0  0  0  0
   -3.6293   -1.6517   -1.2540 C   0  0  0  0  0  0  0  0  0  0  0  0
   -3.9981   -0.2745   -2.2304 Cl  0  0  0  0  0  0  0  0  0  0  0  0
   -0.9458   -0.6070   -0.9533 H   0  0  0  0  0  0  0  0  0  0  0  0
    1.2649   -0.5371   -1.2948 H   0  0  0  0  0  0  0  0  0  0  0  0
    2.2439    2.1723   -1.9441 H   0  0  0  0  0  0  0  0  0  0  0  0
    2.8617    0.6338   -2.5244 H   0  0  0  0  0  0  0  0  0  0  0  0
    4.3473    1.4287   -0.7416 H   0  0  0  0  0  0  0  0  0  0  0  0
    2.9932    1.6756    0.3689 H   0  0  0  0  0  0  0  0  0  0  0  0
    3.2993   -0.4297    1.0645 H   0  0  0  0  0  0  0  0  0  0  0  0
    5.4633   -2.7158    0.3367 H   0  0  0  0  0  0  0  0  0  0  0  0
    3.8861   -2.5268    1.1331 H   0  0  0  0  0  0  0  0  0  0  0  0
    3.9829   -3.3731   -0.4225 H   0  0  0  0  0  0  0  0  0  0  0  0
   -3.5293    2.1955    2.4664 H   0  0  0  0  0  0  0  0  0  0  0  0
   -0.5141    5.6251    1.3345 H   0  0  0  0  0  0  0  0  0  0  0  0
    0.3664    4.8589    2.6989 H   0  0  0  0  0  0  0  0  0  0  0  0
    0.8992    4.5780    1.0159 H   0  0  0  0  0  0  0  0  0  0  0  0
   -2.5894   -2.5726    1.8492 H   0  0  0  0  0  0  0  0  0  0  0  0
   -2.8316   -4.8200    0.8337 H   0  0  0  0  0  0  0  0  0  0  0  0
   -3.5896   -5.0462   -1.5205 H   0  0  0  0  0  0  0  0  0  0  0  0
   -4.1122   -3.0250   -2.8522 H   0  0  0  0  0  0  0  0  0  0  0  0
  1  2  1  0
  2  3  1  0
  3  4  1  0
  4  5  1  0
  5  6  1  0
  6  7  1  0
  7  8  1  0
  7  9  2  0
  2 10  2  0
 10 11  1  0
 11 12  2  0
 12 13  1  0
 13 14  2  0
 14 15  1  0
 15 16  1  0
 12 17  1  0
 17 18  2  3
 18 19  1  0
 19 20  2  0
 20 21  1  0
 21 22  2  0
 22 23  1  0
 23 24  2  0
 24 25  1  0
 17  1  1  0
 24 19  1  0
 15 11  1  0
  1 26  1  0
  3 27  1  0
  4 28  1  0
  4 29  1  0
  5 30  1  0
  5 31  1  0
  6 32  1  0
  8 33  1  0
  8 34  1  0
  8 35  1  0
 13 36  1  0
 16 37  1  0
 16 38  1  0
 16 39  1  0
 20 40  1  0
 21 41  1  0
 22 42  1  0
 23 43  1  0
M  END
>  <ScrubInfo>  (3) 
{"isomerGroup": 0, "isomerId": 2, "confId": 0, "nr_conformers:": 1, "nr_isomers:": 9}

$$$$
_i3
     RDKit          3D

 43 45  0  0  0  0  0  0  0  0999 V2000
    0.8187   -2.0624    0.3234 N   0  0  0  0  0  0  0  0  0  0  0  0
    1.0470   -0.8842    1.0002 C   0  0  0  0  0  0  0  0  0  0  0  0
    2.2610   -0.6140    1.3548 N   0  0  0  0  0  0  0  0  0  0  0  0
    2.5037    0.6340    2.0999 C   0  0  0  0  0  0  0  0  0  0  0  0
    2.6697    1.8175    1.1403 C   0  0  0  0  0  0  0  0  0  0  0  0
    3.7661    1.6028    0.2107 N   0  0  0  0  0  0  0  0  0  0  0  0
    5.0603    1.9145    0.5557 C   0  0  0  0  0  0  0  0  0  0  0  0
    6.0881    1.4408   -0.4364 C   0  0  0  0  0  0  0  0  0  0  0  0
    5.3726    2.5180    1.5772 O   0  0  0  0  0  0  0  0  0  0  0  0
    0.0216    0.0030    1.2889 N   0  0  0  0  0  0  0  0  0  0  0  0
   -1.1893   -0.2720    0.8844 C   0  0  0  0  0  0  0  0  0  0  0  0
   -2.2493    0.5651    1.1350 N   0  0  0  0  0  0  0  0  0  0  0  0
   -3.1586    1.0108    0.1361 C   0  0  0  0  0  0  0  0  0  0  0  0
   -4.5124    1.0866    0.5063 C   0  0  0  0  0  0  0  0  0  0  0  0
   -5.4787    1.5607   -0.3832 C   0  0  0  0  0  0  0  0  0  0  0  0
   -5.1028    1.9971   -1.6498 C   0  0  0  0  0  0  0  0  0  0  0  0
   -3.7587    1.9760   -2.0200 C   0  0  0  0  0  0  0  0  0  0  0  0
   -2.7870    1.5026   -1.1305 C   0  0  0  0  0  0  0  0  0  0  0  0
   -1.1394    1.6006   -1.6453 Cl  0  0  0  0  0  0  0  0  0  0  0  0
   -1.4778   -1.5114    0.1960 C   0  0  0  0  0  0  0  0  0  0  0  0
   -2.5942   -2.1863   -0.3213 C   0  0  0  0  0  0  0  0  0  0  0  0
   -2.2689   -3.3667   -0.8728 N   0  0  0  0  0  0  0  0  0  0  0  0
   -0.9269   -3.4479   -0.6970 N   0  0  0  0  0  0  0  0  0  0  0  0
   -0.2255   -4.6128   -1.1725 C   0  0  0  0  0  0  0  0  0  0  0  0
   -0.4332   -2.3581   -0.0554 C   0  0  0  0  0  0  0  0  0  0  0  0
    1.6352   -2.6441    0.1930 H   0  0  0  0  0  0  0  0  0  0  0  0
    3.4255    0.4956    2.6772 H   0  0  0  0  0  0  0  0  0  0  0  0
    1.7169    0.8380    2.8358 H   0  0  0  0  0  0  0  0  0  0  0  0
    1.7699    1.9642    0.5351 H   0  0  0  0  0  0  0  0  0  0  0  0
    2.8514    2.7350    1.7100 H   0  0  0  0  0  0  0  0  0  0  0  0
    3.6219    0.8556   -0.4557 H   0  0  0  0  0  0  0  0  0  0  0  0
    6.6155    0.5783   -0.0208 H   0  0  0  0  0  0  0  0  0  0  0  0
    5.6287    1.1546   -1.3867 H   0  0  0  0  0  0  0  0  0  0  0  0
    6.7977    2.2500   -0.6304 H   0  0  0  0  0  0  0  0  0  0  0  0
   -1.8960    1.3863    1.6235 H   0  0  0  0  0  0  0  0  0  0  0  0
   -4.8228    0.7531    1.4951 H   0  0  0  0  0  0  0  0  0  0  0  0
   -6.5241    1.5912   -0.0843 H   0  0  0  0  0  0  0  0  0  0  0  0
   -5.8530    2.3679   -2.3443 H   0  0  0  0  0  0  0  0  0  0  0  0
   -3.4710    2.3440   -3.0022 H   0  0  0  0  0  0  0  0  0  0  0  0
   -3.6327   -1.8830   -0.3247 H   0  0  0  0  0  0  0  0  0  0  0  0
    0.8474   -4.4955   -1.0061 H   0  0  0  0  0  0  0  0  0  0  0  0
   -0.4229   -4.7223   -2.2419 H   0  0  0  0  0  0  0  0  0  0  0  0
   -0.5940   -5.4833   -0.6242 H   0  0  0  0  0  0  0  0  0  0  0  0
  1  2  1  0
  2  3  2  3
  3  4  1  0
  4  5  1  0
  5  6  1  0
  6  7  1  0
  7  8  1  0
  7  9  2  0
  2 10  1  0
 10 11  2  0
 11 12  1  0
 12 13  1  0
 13 14  2  0
 14 15  1  0
 15 16  2  0
 16 17  1  0
 17 18  2  0
 18 19  1  0
 11 20  1  0
 20 21  1  0
 21 22  2  0
 22 23  1  0
 23 24  1  0
 23 25  1  0
 25  1  1  0
 18 13  1  0
 25 20  2  0
  1 26  1  0
  4 27  1  0
  4 28  1  0
  5 29  1  0
  5 30  1  0
  6 31  1  0
  8 32  1  0
  8 33  1  0
  8 34  1  0
 12 35  1  0
 14 36  1  0
 15 37  1  0
 16 38  1  0
 17 39  1  0
 21 40  1  0
 24 41  1  0
 24 42  1  0
 24 43  1  0
M  END
>  <ScrubInfo>  (4) 
{"isomerGroup": 0, "isomerId": 3, "confId": 0, "nr_conformers:": 1, "nr_isomers:": 9}

$$$$
_i4
     RDKit          3D

 43 45  0  0  0  0  0  0  0  0999 V2000
   -2.9011   -2.3056   -0.0383 N   0  0  0  0  0  0  0  0  0  0  0  0
   -2.9639   -0.9475    0.2572 C   0  0  0  0  0  0  0  0  0  0  0  0
   -1.7996   -0.3055    0.0748 C   0  0  0  0  0  0  0  0  0  0  0  0
   -1.2392    1.0318    0.2218 C   0  0  0  0  0  0  0  0  0  0  0  0
   -1.7998    2.1532    0.5304 N   0  0  0  0  0  0  0  0  0  0  0  0
   -3.1811    2.2300    0.7597 C   0  0  0  0  0  0  0  0  0  0  0  0
   -3.6351    2.2288    2.0846 C   0  0  0  0  0  0  0  0  0  0  0  0
   -4.9976    2.3301    2.3751 C   0  0  0  0  0  0  0  0  0  0  0  0
   -5.9236    2.4490    1.3407 C   0  0  0  0  0  0  0  0  0  0  0  0
   -5.4876    2.4734    0.0157 C   0  0  0  0  0  0  0  0  0  0  0  0
   -4.1232    2.3717   -0.2746 C   0  0  0  0  0  0  0  0  0  0  0  0
   -3.6413    2.3998   -1.9345 Cl  0  0  0  0  0  0  0  0  0  0  0  0
    0.1113    1.0941   -0.0009 N   0  0  0  0  0  0  0  0  0  0  0  0
    0.8154    0.0759   -0.3958 C   0  0  0  0  0  0  0  0  0  0  0  0
    2.1482    0.3097   -0.5757 N   0  0  0  0  0  0  0  0  0  0  0  0
    2.9558   -0.4825   -1.4921 C   0  0  0  0  0  0  0  0  0  0  0  0
    4.4333   -0.1077   -1.3449 C   0  0  0  0  0  0  0  0  0  0  0  0
    4.8925   -0.2664    0.0245 N   0  0  0  0  0  0  0  0  0  0  0  0
    6.2261   -0.1735    0.3392 C   0  0  0  0  0  0  0  0  0  0  0  0
    6.5174   -0.2161    1.8148 C   0  0  0  0  0  0  0  0  0  0  0  0
    7.1136   -0.0580   -0.4996 O   0  0  0  0  0  0  0  0  0  0  0  0
    0.3314   -1.1794   -0.6407 N   0  0  0  0  0  0  0  0  0  0  0  0
   -0.9214   -1.3806   -0.4246 C   0  0  0  0  0  0  0  0  0  0  0  0
   -1.6513   -2.5592   -0.5849 N   0  0  0  0  0  0  0  0  0  0  0  0
   -1.0355   -3.8540   -0.3661 C   0  0  0  0  0  0  0  0  0  0  0  0
   -3.7032   -2.6380   -0.5793 H   0  0  0  0  0  0  0  0  0  0  0  0
   -3.9076   -0.5430    0.5912 H   0  0  0  0  0  0  0  0  0  0  0  0
   -2.9138    2.1559    2.8954 H   0  0  0  0  0  0  0  0  0  0  0  0
   -5.3320    2.3281    3.4099 H   0  0  0  0  0  0  0  0  0  0  0  0
   -6.9839    2.5361    1.5664 H   0  0  0  0  0  0  0  0  0  0  0  0
   -6.2129    2.5796   -0.7869 H   0  0  0  0  0  0  0  0  0  0  0  0
    2.3272    1.3088   -0.5973 H   0  0  0  0  0  0  0  0  0  0  0  0
    2.6303   -0.3081   -2.5234 H   0  0  0  0  0  0  0  0  0  0  0  0
    2.8377   -1.5495   -1.2701 H   0  0  0  0  0  0  0  0  0  0  0  0
    5.0530   -0.7269   -2.0024 H   0  0  0  0  0  0  0  0  0  0  0  0
    4.5935    0.9411   -1.6208 H   0  0  0  0  0  0  0  0  0  0  0  0
    4.2018   -0.1136    0.7519 H   0  0  0  0  0  0  0  0  0  0  0  0
    5.6445   -0.5392    2.3890 H   0  0  0  0  0  0  0  0  0  0  0  0
    7.3292   -0.9252    1.9986 H   0  0  0  0  0  0  0  0  0  0  0  0
    6.8145    0.7811    2.1497 H   0  0  0  0  0  0  0  0  0  0  0  0
   -0.7404   -3.9727    0.6818 H   0  0  0  0  0  0  0  0  0  0  0  0
   -0.1475   -3.9697   -0.9957 H   0  0  0  0  0  0  0  0  0  0  0  0
   -1.7343   -4.6563   -0.6239 H   0  0  0  0  0  0  0  0  0  0  0  0
  1  2  1  0
  2  3  2  0
  3  4  1  0
  4  5  2  3
  5  6  1  0
  6  7  2  0
  7  8  1  0
  8  9  2  0
  9 10  1  0
 10 11  2  0
 11 12  1  0
  4 13  1  0
 13 14  2  0
 14 15  1  0
 15 16  1  0
 16 17  1  0
 17 18  1  0
 18 19  1  0
 19 20  1  0
 19 21  2  0
 14 22  1  0
 22 23  2  0
 23 24  1  0
 24 25  1  0
 24  1  1  0
 23  3  1  0
 11  6  1  0
  1 26  1  0
  2 27  1  0
  7 28  1  0
  8 29  1  0
  9 30  1  0
 10 31  1  0
 15 32  1  0
 16 33  1  0
 16 34  1  0
 17 35  1  0
 17 36  1  0
 18 37  1  0
 20 38  1  0
 20 39  1  0
 20 40  1  0
 25 41  1  0
 25 42  1  0
 25 43  1  0
M  END
>  <ScrubInfo>  (5) 
{"isomerGroup": 0, "isomerId": 4, "confId": 0, "nr_conformers:": 1, "nr_isomers:": 9}

$$$$
_i5
     RDKit          3D

 43 45  0  0  0  0  0  0  0  0999 V2000
    1.0705   -1.2285    1.4240 N   0  0  0  0  0  0  0  0  0  0  0  0
    0.2842   -0.1114    1.5737 C   0  0  0  0  0  0  0  0  0  0  0  0
    0.7648    0.8381    2.4284 N   0  0  0  0  0  0  0  0  0  0  0  0
    2.1095    1.4038    2.2734 C   0  0  0  0  0  0  0  0  0  0  0  0
    2.2340    2.2799    1.0118 C   0  0  0  0  0  0  0  0  0  0  0  0
    2.0162    1.5712   -0.2369 N   0  0  0  0  0  0  0  0  0  0  0  0
    2.9006    0.6149   -0.6777 C   0  0  0  0  0  0  0  0  0  0  0  0
    2.4880   -0.0756   -1.9494 C   0  0  0  0  0  0  0  0  0  0  0  0
    3.9490    0.3493   -0.0962 O   0  0  0  0  0  0  0  0  0  0  0  0
   -0.8461    0.1110    0.9594 N   0  0  0  0  0  0  0  0  0  0  0  0
   -1.3084   -0.8255    0.0425 C   0  0  0  0  0  0  0  0  0  0  0  0
   -2.3734   -0.6695   -0.6763 N   0  0  0  0  0  0  0  0  0  0  0  0
   -3.1042    0.5246   -0.5251 C   0  0  0  0  0  0  0  0  0  0  0  0
   -4.3123    0.4740    0.1813 C   0  0  0  0  0  0  0  0  0  0  0  0
   -5.0968    1.6184    0.3444 C   0  0  0  0  0  0  0  0  0  0  0  0
   -4.6863    2.8297   -0.2086 C   0  0  0  0  0  0  0  0  0  0  0  0
   -3.4933    2.8965   -0.9286 C   0  0  0  0  0  0  0  0  0  0  0  0
   -2.7077    1.7503   -1.0912 C   0  0  0  0  0  0  0  0  0  0  0  0
   -1.2456    1.8950   -2.0079 Cl  0  0  0  0  0  0  0  0  0  0  0  0
   -0.5230   -2.0194   -0.1334 C   0  0  0  0  0  0  0  0  0  0  0  0
   -0.6109   -3.1797   -0.9130 C   0  0  0  0  0  0  0  0  0  0  0  0
    0.4314   -4.0046   -0.7159 N   0  0  0  0  0  0  0  0  0  0  0  0
    1.1911   -3.3549    0.2026 N   0  0  0  0  0  0  0  0  0  0  0  0
    2.4315   -3.9463    0.6349 C   0  0  0  0  0  0  0  0  0  0  0  0
    0.6405   -2.1688    0.5681 C   0  0  0  0  0  0  0  0  0  0  0  0
    1.8917   -1.3149    2.0080 H   0  0  0  0  0  0  0  0  0  0  0  0
    0.0718    1.5807    2.5016 H   0  0  0  0  0  0  0  0  0  0  0  0
    2.8630    0.6100    2.2796 H   0  0  0  0  0  0  0  0  0  0  0  0
    2.3109    2.0287    3.1508 H   0  0  0  0  0  0  0  0  0  0  0  0
    3.2369    2.7201    0.9786 H   0  0  0  0  0  0  0  0  0  0  0  0
    1.5043    3.0963    1.0431 H   0  0  0  0  0  0  0  0  0  0  0  0
    1.0709    1.5562   -0.6099 H   0  0  0  0  0  0  0  0  0  0  0  0
    3.0276    0.3690   -2.7894 H   0  0  0  0  0  0  0  0  0  0  0  0
    2.7338   -1.1387   -1.8759 H   0  0  0  0  0  0  0  0  0  0  0  0
    1.4131    0.0131   -2.1255 H   0  0  0  0  0  0  0  0  0  0  0  0
   -4.6404   -0.4702    0.6087 H   0  0  0  0  0  0  0  0  0  0  0  0
   -6.0295    1.5598    0.9000 H   0  0  0  0  0  0  0  0  0  0  0  0
   -5.2983    3.7197   -0.0847 H   0  0  0  0  0  0  0  0  0  0  0  0
   -3.1829    3.8415   -1.3660 H   0  0  0  0  0  0  0  0  0  0  0  0
   -1.3824   -3.4600   -1.6189 H   0  0  0  0  0  0  0  0  0  0  0  0
    2.9133   -3.3032    1.3742 H   0  0  0  0  0  0  0  0  0  0  0  0
    2.2123   -4.9209    1.0783 H   0  0  0  0  0  0  0  0  0  0  0  0
    3.0808   -4.0595   -0.2370 H   0  0  0  0  0  0  0  0  0  0  0  0
  1  2  1  0
  2  3  1  0
  3  4  1  0
  4  5  1  0
  5  6  1  0
  6  7  1  0
  7  8  1  0
  7  9  2  0
  2 10  2  0
 10 11  1  0
 11 12  2  3
 12 13  1  0
 13 14  2  0
 14 15  1  0
 15 16  2  0
 16 17  1  0
 17 18  2  0
 18 19  1  0
 11 20  1  0
 20 21  1  0
 21 22  2  0
 22 23  1  0
 23 24  1  0
 23 25  1  0
 25  1  1  0
 18 13  1  0
 25 20  2  0
  1 26  1  0
  3 27  1  0
  4 28  1  0
  4 29  1  0
  5 30  1  0
  5 31  1  0
  6 32  1  0
  8 33  1  0
  8 34  1  0
  8 35  1  0
 14 36  1  0
 15 37  1  0
 16 38  1  0
 17 39  1  0
 21 40  1  0
 24 41  1  0
 24 42  1  0
 24 43  1  0
M  END
>  <ScrubInfo>  (6) 
{"isomerGroup": 0, "isomerId": 5, "confId": 0, "nr_conformers:": 1, "nr_isomers:": 9}

$$$$
_i6
     RDKit          3D

 43 45  0  0  0  0  0  0  0  0999 V2000
   -2.1614   -2.7369   -0.2953 N   0  0  0  0  0  0  0  0  0  0  0  0
   -2.6385   -1.4454   -0.4938 C   0  0  0  0  0  0  0  0  0  0  0  0
   -1.6734   -0.5170   -0.4496 C   0  0  0  0  0  0  0  0  0  0  0  0
   -1.5284    0.9346   -0.5458 C   0  0  0  0  0  0  0  0  0  0  0  0
   -2.5717    1.8100   -0.7700 N   0  0  0  0  0  0  0  0  0  0  0  0
   -3.8515    1.6742   -0.1799 C   0  0  0  0  0  0  0  0  0  0  0  0
   -4.9627    1.8296   -1.0246 C   0  0  0  0  0  0  0  0  0  0  0  0
   -6.2646    1.7662   -0.5234 C   0  0  0  0  0  0  0  0  0  0  0  0
   -6.4769    1.5753    0.8387 C   0  0  0  0  0  0  0  0  0  0  0  0
   -5.3871    1.4647    1.7015 C   0  0  0  0  0  0  0  0  0  0  0  0
   -4.0815    1.5294    1.2015 C   0  0  0  0  0  0  0  0  0  0  0  0
   -2.7916    1.4616    2.3502 Cl  0  0  0  0  0  0  0  0  0  0  0  0
   -0.3325    1.4448   -0.4360 N   0  0  0  0  0  0  0  0  0  0  0  0
    0.7365    0.6068   -0.2061 C   0  0  0  0  0  0  0  0  0  0  0  0
    1.8531    1.2295   -0.0617 N   0  0  0  0  0  0  0  0  0  0  0  0
    3.0503    0.4225    0.1753 C   0  0  0  0  0  0  0  0  0  0  0  0
    4.2638    1.3557    0.2381 C   0  0  0  0  0  0  0  0  0  0  0  0
    5.4628    0.6861    0.7121 N   0  0  0  0  0  0  0  0  0  0  0  0
    6.2127   -0.1267   -0.1040 C   0  0  0  0  0  0  0  0  0  0  0  0
    7.3766   -0.7841    0.5881 C   0  0  0  0  0  0  0  0  0  0  0  0
    5.9664   -0.3269   -1.2882 O   0  0  0  0  0  0  0  0  0  0  0  0
    0.7081   -0.7668   -0.1257 N   0  0  0  0  0  0  0  0  0  0  0  0
   -0.4459   -1.3207   -0.2648 C   0  0  0  0  0  0  0  0  0  0  0  0
   -0.7725   -2.6770   -0.2658 N   0  0  0  0  0  0  0  0  0  0  0  0
   -0.0377   -3.6240    0.5499 C   0  0  0  0  0  0  0  0  0  0  0  0
   -2.5657   -3.4221   -0.9380 H   0  0  0  0  0  0  0  0  0  0  0  0
   -3.6959   -1.2986   -0.6597 H   0  0  0  0  0  0  0  0  0  0  0  0
   -2.2346    2.7660   -0.6663 H   0  0  0  0  0  0  0  0  0  0  0  0
   -4.8124    1.9886   -2.0911 H   0  0  0  0  0  0  0  0  0  0  0  0
   -7.1116    1.8730   -1.1974 H   0  0  0  0  0  0  0  0  0  0  0  0
   -7.4897    1.5301    1.2323 H   0  0  0  0  0  0  0  0  0  0  0  0
   -5.5608    1.3431    2.7682 H   0  0  0  0  0  0  0  0  0  0  0  0
    3.2018   -0.3121   -0.6251 H   0  0  0  0  0  0  0  0  0  0  0  0
    2.9622   -0.1155    1.1276 H   0  0  0  0  0  0  0  0  0  0  0  0
    4.4615    1.7825   -0.7520 H   0  0  0  0  0  0  0  0  0  0  0  0
    4.0731    2.1863    0.9268 H   0  0  0  0  0  0  0  0  0  0  0  0
    5.6429    0.6959    1.7066 H   0  0  0  0  0  0  0  0  0  0  0  0
    7.1420   -1.8379    0.7595 H   0  0  0  0  0  0  0  0  0  0  0  0
    7.5981   -0.3073    1.5470 H   0  0  0  0  0  0  0  0  0  0  0  0
    8.2632   -0.7014   -0.0466 H   0  0  0  0  0  0  0  0  0  0  0  0
   -0.1870   -3.4178    1.6149 H   0  0  0  0  0  0  0  0  0  0  0  0
    1.0334   -3.5730    0.3297 H   0  0  0  0  0  0  0  0  0  0  0  0
   -0.3730   -4.6455    0.3429 H   0  0  0  0  0  0  0  0  0  0  0  0
  1  2  1  0
  2  3  2  0
  3  4  1  0
  4  5  1  0
  5  6  1  0
  6  7  2  0
  7  8  1  0
  8  9  2  0
  9 10  1  0
 10 11  2  0
 11 12  1  0
  4 13  2  0
 13 14  1  0
 14 15  2  3
 15 16  1  0
 16 17  1  0
 17 18  1  0
 18 19  1  0
 19 20  1  0
 19 21  2  0
 14 22  1  0
 22 23  2  0
 23 24  1  0
 24 25  1  0
 24  1  1  0
 23  3  1  0
 11  6  1  0
  1 26  1  0
  2 27  1  0
  5 28  1  0
  7 29  1  0
  8 30  1  0
  9 31  1  0
 10 32  1  0
 16 33  1  0
 16 34  1  0
 17 35  1  0
 17 36  1  0
 18 37  1  0
 20 38  1  0
 20 39  1  0
 20 40  1  0
 25 41  1  0
 25 42  1  0
 25 43  1  0
M  END
>  <ScrubInfo>  (7) 
{"isomerGroup": 0, "isomerId": 6, "confId": 0, "nr_conformers:": 1, "nr_isomers:": 9}

$$$$
_i7
     RDKit          3D

 43 45  0  0  0  0  0  0  0  0999 V2000
   -2.3358   -2.5143    1.0444 N   0  0  0  0  0  0  0  0  0  0  0  0
   -2.8366   -1.2927    0.6095 C   0  0  0  0  0  0  0  0  0  0  0  0
   -1.8842   -0.3924    0.3274 C   0  0  0  0  0  0  0  0  0  0  0  0
   -1.7394    0.9877   -0.1768 C   0  0  0  0  0  0  0  0  0  0  0  0
   -2.6582    1.8431   -0.5156 N   0  0  0  0  0  0  0  0  0  0  0  0
   -4.0191    1.5054   -0.4552 C   0  0  0  0  0  0  0  0  0  0  0  0
   -4.7468    1.8620    0.6870 C   0  0  0  0  0  0  0  0  0  0  0  0
   -6.1102    1.5746    0.7848 C   0  0  0  0  0  0  0  0  0  0  0  0
   -6.7659    0.9384   -0.2677 C   0  0  0  0  0  0  0  0  0  0  0  0
   -6.0608    0.5952   -1.4216 C   0  0  0  0  0  0  0  0  0  0  0  0
   -4.6961    0.8834   -1.5191 C   0  0  0  0  0  0  0  0  0  0  0  0
   -3.8689    0.4341   -2.9689 Cl  0  0  0  0  0  0  0  0  0  0  0  0
   -0.4279    1.3631   -0.2828 N   0  0  0  0  0  0  0  0  0  0  0  0
    0.6772    0.6183    0.0146 C   0  0  0  0  0  0  0  0  0  0  0  0
    1.8438    1.1397   -0.1832 N   0  0  0  0  0  0  0  0  0  0  0  0
    3.0079    0.3183    0.1563 C   0  0  0  0  0  0  0  0  0  0  0  0
    4.2818    1.1219   -0.1144 C   0  0  0  0  0  0  0  0  0  0  0  0
    5.4823    0.3364    0.1201 N   0  0  0  0  0  0  0  0  0  0  0  0
    6.7000    0.9517    0.3064 C   0  0  0  0  0  0  0  0  0  0  0  0
    7.8610   -0.0040    0.3792 C   0  0  0  0  0  0  0  0  0  0  0  0
    6.8525    2.1648    0.3968 O   0  0  0  0  0  0  0  0  0  0  0  0
    0.5712   -0.6602    0.5199 N   0  0  0  0  0  0  0  0  0  0  0  0
   -0.6238   -1.1363    0.6871 C   0  0  0  0  0  0  0  0  0  0  0  0
   -0.9648   -2.3869    1.2084 N   0  0  0  0  0  0  0  0  0  0  0  0
   -0.1179   -3.5441    0.9909 C   0  0  0  0  0  0  0  0  0  0  0  0
   -2.8512   -2.9087    1.8347 H   0  0  0  0  0  0  0  0  0  0  0  0
   -3.9080   -1.1804    0.5390 H   0  0  0  0  0  0  0  0  0  0  0  0
   -4.2438    2.3752    1.5032 H   0  0  0  0  0  0  0  0  0  0  0  0
   -6.6610    1.8588    1.6785 H   0  0  0  0  0  0  0  0  0  0  0  0
   -7.8291    0.7210   -0.1952 H   0  0  0  0  0  0  0  0  0  0  0  0
   -6.5794    0.1102   -2.2447 H   0  0  0  0  0  0  0  0  0  0  0  0
   -0.2457    2.2864   -0.6470 H   0  0  0  0  0  0  0  0  0  0  0  0
    3.0238   -0.5945   -0.4526 H   0  0  0  0  0  0  0  0  0  0  0  0
    2.9900    0.0283    1.2144 H   0  0  0  0  0  0  0  0  0  0  0  0
    4.3108    1.4556   -1.1583 H   0  0  0  0  0  0  0  0  0  0  0  0
    4.3068    2.0196    0.5143 H   0  0  0  0  0  0  0  0  0  0  0  0
    5.4886   -0.6127   -0.2289 H   0  0  0  0  0  0  0  0  0  0  0  0
    7.5273   -1.0286    0.5662 H   0  0  0  0  0  0  0  0  0  0  0  0
    8.5196    0.2946    1.1996 H   0  0  0  0  0  0  0  0  0  0  0  0
    8.4102    0.0270   -0.5653 H   0  0  0  0  0  0  0  0  0  0  0  0
    0.9013   -3.3474    1.3385 H   0  0  0  0  0  0  0  0  0  0  0  0
   -0.0819   -3.8054   -0.0719 H   0  0  0  0  0  0  0  0  0  0  0  0
   -0.4997   -4.4058    1.5482 H   0  0  0  0  0  0  0  0  0  0  0  0
  1  2  1  0
  2  3  2  0
  3  4  1  0
  4  5  2  3
  5  6  1  0
  6  7  2  0
  7  8  1  0
  8  9  2  0
  9 10  1  0
 10 11  2  0
 11 12  1  0
  4 13  1  0
 13 14  1  0
 14 15  2  3
 15 16  1  0
 16 17  1  0
 17 18  1  0
 18 19  1  0
 19 20  1  0
 19 21  2  0
 14 22  1  0
 22 23  2  0
 23 24  1  0
 24 25  1  0
 24  1  1  0
 23  3  1  0
 11  6  1  0
  1 26  1  0
  2 27  1  0
  7 28  1  0
  8 29  1  0
  9 30  1  0
 10 31  1  0
 13 32  1  0
 16 33  1  0
 16 34  1  0
 17 35  1  0
 17 36  1  0
 18 37  1  0
 20 38  1  0
 20 39  1  0
 20 40  1  0
 25 41  1  0
 25 42  1  0
 25 43  1  0
M  END
>  <ScrubInfo>  (8) 
{"isomerGroup": 0, "isomerId": 7, "confId": 0, "nr_conformers:": 1, "nr_isomers:": 9}

$$$$
_i8
     RDKit          3D

 43 45  0  0  0  0  0  0  0  0999 V2000
    0.5565   -1.7251    0.4240 N   0  0  0  0  0  0  0  0  0  0  0  0
    1.0698   -0.4982    0.7933 C   0  0  0  0  0  0  0  0  0  0  0  0
    2.3216   -0.4369    1.0969 N   0  0  0  0  0  0  0  0  0  0  0  0
    2.9127    0.8415    1.5149 C   0  0  0  0  0  0  0  0  0  0  0  0
    3.4400    1.6081    0.2968 C   0  0  0  0  0  0  0  0  0  0  0  0
    4.4494    0.8487   -0.4179 N   0  0  0  0  0  0  0  0  0  0  0  0
    5.7671    0.8820   -0.0225 C   0  0  0  0  0  0  0  0  0  0  0  0
    6.6471   -0.1068   -0.7383 C   0  0  0  0  0  0  0  0  0  0  0  0
    6.2023    1.6374    0.8406 O   0  0  0  0  0  0  0  0  0  0  0  0
    0.1296    0.5137    0.7706 N   0  0  0  0  0  0  0  0  0  0  0  0
   -1.2102    0.5026    0.4332 C   0  0  0  0  0  0  0  0  0  0  0  0
   -1.9040    1.6009    0.4643 N   0  0  0  0  0  0  0  0  0  0  0  0
   -3.2532    1.6439    0.0855 C   0  0  0  0  0  0  0  0  0  0  0  0
   -4.2335    1.5578    1.0817 C   0  0  0  0  0  0  0  0  0  0  0  0
   -5.5901    1.6283    0.7563 C   0  0  0  0  0  0  0  0  0  0  0  0
   -5.9813    1.8026   -0.5702 C   0  0  0  0  0  0  0  0  0  0  0  0
   -5.0169    1.9148   -1.5720 C   0  0  0  0  0  0  0  0  0  0  0  0
   -3.6594    1.8443   -1.2460 C   0  0  0  0  0  0  0  0  0  0  0  0
   -2.5028    1.9938   -2.5225 Cl  0  0  0  0  0  0  0  0  0  0  0  0
   -1.6539   -0.8336    0.0768 C   0  0  0  0  0  0  0  0  0  0  0  0
   -2.8547   -1.4617   -0.3026 C   0  0  0  0  0  0  0  0  0  0  0  0
   -2.7114   -2.7788   -0.5123 N   0  0  0  0  0  0  0  0  0  0  0  0
   -1.4004   -3.0024   -0.2739 N   0  0  0  0  0  0  0  0  0  0  0  0
   -0.8796   -4.3400   -0.4032 C   0  0  0  0  0  0  0  0  0  0  0  0
   -0.7435   -1.8680    0.0907 C   0  0  0  0  0  0  0  0  0  0  0  0
    1.2257   -2.4851    0.4574 H   0  0  0  0  0  0  0  0  0  0  0  0
    3.7393    0.6164    2.1988 H   0  0  0  0  0  0  0  0  0  0  0  0
    2.2096    1.4580    2.0851 H   0  0  0  0  0  0  0  0  0  0  0  0
    2.6311    1.8062   -0.4138 H   0  0  0  0  0  0  0  0  0  0  0  0
    3.8620    2.5676    0.6139 H   0  0  0  0  0  0  0  0  0  0  0  0
    4.1189    0.0093   -0.8769 H   0  0  0  0  0  0  0  0  0  0  0  0
    6.8827   -0.9318   -0.0612 H   0  0  0  0  0  0  0  0  0  0  0  0
    6.1593   -0.5061   -1.6320 H   0  0  0  0  0  0  0  0  0  0  0  0
    7.5694    0.3931   -1.0472 H   0  0  0  0  0  0  0  0  0  0  0  0
    0.4431    1.4393    1.0142 H   0  0  0  0  0  0  0  0  0  0  0  0
   -3.9347    1.4353    2.1199 H   0  0  0  0  0  0  0  0  0  0  0  0
   -6.3402    1.5533    1.5402 H   0  0  0  0  0  0  0  0  0  0  0  0
   -7.0375    1.8600   -0.8233 H   0  0  0  0  0  0  0  0  0  0  0  0
   -5.3273    2.0608   -2.6035 H   0  0  0  0  0  0  0  0  0  0  0  0
   -3.8402   -1.0379   -0.4352 H   0  0  0  0  0  0  0  0  0  0  0  0
    0.1947   -4.2983   -0.5957 H   0  0  0  0  0  0  0  0  0  0  0  0
   -1.3782   -4.8355   -1.2405 H   0  0  0  0  0  0  0  0  0  0  0  0
   -1.0789   -4.8739    0.5290 H   0  0  0  0  0  0  0  0  0  0  0  0
  1  2  1  0
  2  3  2  3
  3  4  1  0
  4  5  1  0
  5  6  1  0
  6  7  1  0
  7  8  1  0
  7  9  2  0
  2 10  1  0
 10 11  1  0
 11 12  2  3
 12 13  1  0
 13 14  2  0
 14 15  1  0
 15 16  2  0
 16 17  1  0
 17 18  2  0
 18 19  1  0
 11 20  1  0
 20 21  1  0
 21 22  2  0
 22 23  1  0
 23 24  1  0
 23 25  1  0
 25  1  1  0
 18 13  1  0
 25 20  2  0
  1 26  1  0
  4 27  1  0
  4 28  1  0
  5 29  1  0
  5 30  1  0
  6 31  1  0
  8 32  1  0
  8 33  1  0
  8 34  1  0
 10 35  1  0
 14 36  1  0
 15 37  1  0
 16 38  1  0
 17 39  1  0
 21 40  1  0
 24 41  1  0
 24 42  1  0
 24 43  1  0
M  END
>  <ScrubInfo>  (9) 
{"isomerGroup": 0, "isomerId": 8, "confId": 0, "nr_conformers:": 1, "nr_isomers:": 9}

$$$$
