REMARK SMILES CC(=O)NCCNc1nc(Nc2ccccc2Cl)c2cnn(C)c2n1
REMARK SMILES IDX 7 1 6 3 5 4 4 5 2 6 1 7 3 8 8 10 9 11 25 12 10 13 24 14
REMARK SMILES IDX 19 15 22 16 20 17 21 18 23 19 11 20 12 22 13 23 17 24 14 25
REMARK SMILES IDX 16 26 15 27 18 28
REMARK H PARENT 7 2 4 9 11 21
ROOT
ATOM      1  N   UNL     1       1.427   0.539  -1.201  1.00  0.00    -0.352 N 
ATOM      2  H   UNL     1       1.047   1.472  -1.079  1.00  0.00     0.163 HD
ENDROOT
BRANCH   1   3
ATOM      3  C   UNL     1       2.732   0.311  -0.599  1.00  0.00     0.137 C 
BRANCH   3   4
ATOM      4  C   UNL     1       2.726   0.517   0.926  1.00  0.00     0.137 C 
BRANCH   4   5
ATOM      5  N   UNL     1       4.030   0.314   1.532  1.00  0.00    -0.355 N 
ATOM      6  C   UNL     1       5.022   1.261   1.435  1.00  0.00     0.216 C 
ATOM      7  C   UNL     1       6.319   0.872   2.090  1.00  0.00     0.114 C 
ATOM      8  O   UNL     1       4.880   2.330   0.850  1.00  0.00    -0.275 OA
ATOM      9  H   UNL     1       4.238  -0.590   1.936  1.00  0.00     0.163 HD
ENDBRANCH   4   5
ENDBRANCH   3   4
ENDBRANCH   1   3
BRANCH   1  10
ATOM     10  C   UNL     1       0.421  -0.358  -0.880  1.00  0.00     0.226 A 
ATOM     11  N   UNL     1      -0.807   0.182  -0.807  1.00  0.00    -0.195 NA
ATOM     12  N   UNL     1       0.724  -1.643  -0.654  1.00  0.00    -0.193 NA
ATOM     13  C   UNL     1      -1.891  -0.579  -0.504  1.00  0.00     0.147 A 
ATOM     14  C   UNL     1      -0.354  -2.384  -0.361  1.00  0.00     0.165 A 
ATOM     15  C   UNL     1      -1.657  -1.939  -0.265  1.00  0.00     0.082 A 
ATOM     16  N   UNL     1      -0.392  -3.727  -0.100  1.00  0.00    -0.250 N 
ATOM     17  C   UNL     1      -2.397  -3.093   0.070  1.00  0.00     0.149 A 
ATOM     18  N   UNL     1      -1.634  -4.187   0.181  1.00  0.00    -0.179 NA
ATOM     19  C   UNL     1       0.720  -4.643  -0.100  1.00  0.00     0.176 C 
BRANCH  13  20
ATOM     20  N   UNL     1      -3.179  -0.037  -0.413  1.00  0.00    -0.338 N 
ATOM     21  H   UNL     1      -3.891  -0.697  -0.122  1.00  0.00     0.168 HD
BRANCH  20  22
ATOM     22  C   UNL     1      -3.703   1.254  -0.637  1.00  0.00     0.058 A 
ATOM     23  C   UNL     1      -2.942   2.319  -1.132  1.00  0.00     0.027 A 
ATOM     24  C   UNL     1      -5.060   1.513  -0.342  1.00  0.00     0.064 A 
ATOM     25  C   UNL     1      -3.505   3.587  -1.327  1.00  0.00     0.002 A 
ATOM     26  C   UNL     1      -5.627   2.776  -0.533  1.00  0.00     0.023 A 
ATOM     27  C   UNL     1      -4.845   3.816  -1.027  1.00  0.00     0.002 A 
ATOM     28  Cl  UNL     1      -6.079   0.252   0.276  1.00  0.00    -0.082 Cl
ENDBRANCH  20  22
ENDBRANCH  13  20
ENDBRANCH   1  10
TORSDOF 6
