_i0
     RDKit          3D

 46 48  0  0  0  0  0  0  0  0999 V2000
    4.4404   -3.0086    1.2078 C   0  0  0  0  0  0  0  0  0  0  0  0
    4.2633   -1.8845    0.2231 C   0  0  0  0  0  0  0  0  0  0  0  0
    3.5873   -2.0094   -0.7926 O   0  0  0  0  0  0  0  0  0  0  0  0
    4.8900   -0.7151    0.5792 N   0  0  0  0  0  0  0  0  0  0  0  0
    4.8541    0.4851   -0.2488 C   0  0  0  0  0  0  0  0  0  0  0  0
    3.4950    1.2083   -0.2307 C   0  0  0  0  0  0  0  0  0  0  0  0
    2.5555    0.5685   -1.1356 N   0  0  0  0  0  0  0  0  0  0  0  0
    1.2246    0.9089   -0.9531 C   0  0  0  0  0  0  0  0  0  0  0  0
    0.3444   -0.0712   -1.2251 N   0  0  0  0  0  0  0  0  0  0  0  0
   -0.9863    0.1455   -1.0863 C   0  0  0  0  0  0  0  0  0  0  0  0
   -1.8405   -0.9294   -1.3955 N   0  0  0  0  0  0  0  0  0  0  0  0
   -3.0165   -1.2559   -0.6852 C   0  0  0  0  0  0  0  0  0  0  0  0
   -4.2183   -1.2972   -1.4081 C   0  0  0  0  0  0  0  0  0  0  0  0
   -5.4214   -1.6218   -0.7830 C   0  0  0  0  0  0  0  0  0  0  0  0
   -5.4343   -1.9238    0.5741 C   0  0  0  0  0  0  0  0  0  0  0  0
   -4.2429   -1.9163    1.3000 C   0  0  0  0  0  0  0  0  0  0  0  0
   -3.0207   -1.6053    0.6794 C   0  0  0  0  0  0  0  0  0  0  0  0
   -1.7653   -1.6276    1.5077 C   0  0  0  0  0  0  0  0  0  0  0  0
   -1.4013    1.4083   -0.6614 C   0  0  0  0  0  0  0  0  0  0  0  0
   -2.6020    2.0941   -0.3868 C   0  0  0  0  0  0  0  0  0  0  0  0
   -2.4008    3.3571    0.0108 N   0  0  0  0  0  0  0  0  0  0  0  0
   -1.0534    3.4782   -0.0231 N   0  0  0  0  0  0  0  0  0  0  0  0
   -0.4469    4.7360    0.3320 C   0  0  0  0  0  0  0  0  0  0  0  0
   -0.4097    2.3352   -0.4108 C   0  0  0  0  0  0  0  0  0  0  0  0
    0.9127    2.1443   -0.5302 N   0  0  0  0  0  0  0  0  0  0  0  0
    5.2615   -2.8113    1.9025 H   0  0  0  0  0  0  0  0  0  0  0  0
    4.6683   -3.9288    0.6627 H   0  0  0  0  0  0  0  0  0  0  0  0
    3.5152   -3.1353    1.7759 H   0  0  0  0  0  0  0  0  0  0  0  0
    5.3964   -0.6743    1.4540 H   0  0  0  0  0  0  0  0  0  0  0  0
    5.6241    1.1522    0.1532 H   0  0  0  0  0  0  0  0  0  0  0  0
    5.1373    0.2084   -1.2707 H   0  0  0  0  0  0  0  0  0  0  0  0
    3.1125    1.2253    0.7981 H   0  0  0  0  0  0  0  0  0  0  0  0
    3.6500    2.2436   -0.5576 H   0  0  0  0  0  0  0  0  0  0  0  0
    2.6128   -0.4545   -1.1672 H   0  0  0  0  0  0  0  0  0  0  0  0
   -1.2294   -1.7399   -1.4870 H   0  0  0  0  0  0  0  0  0  0  0  0
   -4.2155   -1.0591   -2.4696 H   0  0  0  0  0  0  0  0  0  0  0  0
   -6.3448   -1.6364   -1.3555 H   0  0  0  0  0  0  0  0  0  0  0  0
   -6.3701   -2.1726    1.0678 H   0  0  0  0  0  0  0  0  0  0  0  0
   -4.2722   -2.1644    2.3591 H   0  0  0  0  0  0  0  0  0  0  0  0
   -1.9072   -2.2105    2.4244 H   0  0  0  0  0  0  0  0  0  0  0  0
   -0.9425   -2.0995    0.9612 H   0  0  0  0  0  0  0  0  0  0  0  0
   -1.4812   -0.6107    1.7941 H   0  0  0  0  0  0  0  0  0  0  0  0
   -3.6164    1.7230   -0.4581 H   0  0  0  0  0  0  0  0  0  0  0  0
    0.6399    4.6654    0.2484 H   0  0  0  0  0  0  0  0  0  0  0  0
   -0.8214    5.5032   -0.3503 H   0  0  0  0  0  0  0  0  0  0  0  0
   -0.7243    4.9726    1.3623 H   0  0  0  0  0  0  0  0  0  0  0  0
  1  2  1  0
  2  3  2  0
  2  4  1  0
  4  5  1  0
  5  6  1  0
  6  7  1  0
  7  8  1  0
  8  9  2  0
  9 10  1  0
 10 11  1  0
 11 12  1  0
 12 13  2  0
 13 14  1  0
 14 15  2  0
 15 16  1  0
 16 17  2  0
 17 18  1  0
 10 19  2  0
 19 20  1  0
 20 21  2  0
 21 22  1  0
 22 23  1  0
 22 24  1  0
 24 25  2  0
 25  8  1  0
 17 12  1  0
 24 19  1  0
  1 26  1  0
  1 27  1  0
  1 28  1  0
  4 29  1  0
  5 30  1  0
  5 31  1  0
  6 32  1  0
  6 33  1  0
  7 34  1  0
 11 35  1  0
 13 36  1  0
 14 37  1  0
 15 38  1  0
 16 39  1  0
 18 40  1  0
 18 41  1  0
 18 42  1  0
 20 43  1  0
 23 44  1  0
 23 45  1  0
 23 46  1  0
M  END
>  <ScrubInfo>  (1) 
{"isomerGroup": 0, "isomerId": 0, "confId": 0, "nr_conformers:": 1, "nr_isomers:": 9}

$$$$
_i1
     RDKit          3D

 46 48  0  0  0  0  0  0  0  0999 V2000
    0.2701   -1.0193   -0.3542 N   0  0  0  0  0  0  0  0  0  0  0  0
   -1.0564   -0.6531   -0.5029 C   0  0  0  0  0  0  0  0  0  0  0  0
   -2.0270   -1.1380    0.3532 N   0  0  0  0  0  0  0  0  0  0  0  0
   -2.9515   -0.3706    1.1076 C   0  0  0  0  0  0  0  0  0  0  0  0
   -2.8077    1.0159    1.2804 C   0  0  0  0  0  0  0  0  0  0  0  0
   -3.7395    1.7526    2.0145 C   0  0  0  0  0  0  0  0  0  0  0  0
   -4.8335    1.1154    2.5873 C   0  0  0  0  0  0  0  0  0  0  0  0
   -4.9981   -0.2585    2.4253 C   0  0  0  0  0  0  0  0  0  0  0  0
   -4.0706   -1.0109    1.6849 C   0  0  0  0  0  0  0  0  0  0  0  0
   -4.3012   -2.4895    1.5197 C   0  0  0  0  0  0  0  0  0  0  0  0
   -1.3222    0.1424   -1.5457 C   0  0  0  0  0  0  0  0  0  0  0  0
   -2.4911    0.7832   -2.1593 C   0  0  0  0  0  0  0  0  0  0  0  0
   -2.1837    1.5126   -3.2033 N   0  0  0  0  0  0  0  0  0  0  0  0
   -0.7993    1.3526   -3.3739 N   0  0  0  0  0  0  0  0  0  0  0  0
   -0.0950    2.2227   -4.2825 C   0  0  0  0  0  0  0  0  0  0  0  0
   -0.1984    0.5755   -2.3982 C   0  0  0  0  0  0  0  0  0  0  0  0
    1.0399    0.2710   -2.2147 N   0  0  0  0  0  0  0  0  0  0  0  0
    1.3009   -0.5543   -1.1431 C   0  0  0  0  0  0  0  0  0  0  0  0
    2.5536   -0.7905   -0.9958 N   0  0  0  0  0  0  0  0  0  0  0  0
    3.0510   -1.6405    0.0862 C   0  0  0  0  0  0  0  0  0  0  0  0
    3.4427   -0.7652    1.2815 C   0  0  0  0  0  0  0  0  0  0  0  0
    4.4511    0.2084    0.9054 N   0  0  0  0  0  0  0  0  0  0  0  0
    5.7898   -0.1000    0.9865 C   0  0  0  0  0  0  0  0  0  0  0  0
    6.6930    0.9166    0.3418 C   0  0  0  0  0  0  0  0  0  0  0  0
    6.2262   -1.1109    1.5281 O   0  0  0  0  0  0  0  0  0  0  0  0
    0.4936   -1.5483    0.4704 H   0  0  0  0  0  0  0  0  0  0  0  0
   -1.7351   -1.9560    0.8794 H   0  0  0  0  0  0  0  0  0  0  0  0
   -1.9535    1.5469    0.8688 H   0  0  0  0  0  0  0  0  0  0  0  0
   -3.6059    2.8240    2.1415 H   0  0  0  0  0  0  0  0  0  0  0  0
   -5.5595    1.6872    3.1598 H   0  0  0  0  0  0  0  0  0  0  0  0
   -5.8629   -0.7405    2.8769 H   0  0  0  0  0  0  0  0  0  0  0  0
   -5.2617   -2.7976    1.9464 H   0  0  0  0  0  0  0  0  0  0  0  0
   -4.3155   -2.7576    0.4583 H   0  0  0  0  0  0  0  0  0  0  0  0
   -3.5139   -3.0540    2.0292 H   0  0  0  0  0  0  0  0  0  0  0  0
   -3.4982    0.6513   -1.7437 H   0  0  0  0  0  0  0  0  0  0  0  0
    0.1917    3.1495   -3.7760 H   0  0  0  0  0  0  0  0  0  0  0  0
   -0.7235    2.4782   -5.1418 H   0  0  0  0  0  0  0  0  0  0  0  0
    0.8102    1.7395   -4.6638 H   0  0  0  0  0  0  0  0  0  0  0  0
    3.9323   -2.1756   -0.2863 H   0  0  0  0  0  0  0  0  0  0  0  0
    2.3352   -2.4115    0.3888 H   0  0  0  0  0  0  0  0  0  0  0  0
    3.8127   -1.3890    2.1015 H   0  0  0  0  0  0  0  0  0  0  0  0
    2.5765   -0.1999    1.6410 H   0  0  0  0  0  0  0  0  0  0  0  0
    4.1689    0.8420    0.1648 H   0  0  0  0  0  0  0  0  0  0  0  0
    7.0744    0.5108   -0.5988 H   0  0  0  0  0  0  0  0  0  0  0  0
    6.1650    1.8527    0.1390 H   0  0  0  0  0  0  0  0  0  0  0  0
    7.5262    1.1335    1.0160 H   0  0  0  0  0  0  0  0  0  0  0  0
  1  2  1  0
  2  3  1  0
  3  4  1  0
  4  5  2  0
  5  6  1  0
  6  7  2  0
  7  8  1  0
  8  9  2  0
  9 10  1  0
  2 11  2  0
 11 12  1  0
 12 13  2  0
 13 14  1  0
 14 15  1  0
 14 16  1  0
 16 17  2  0
 17 18  1  0
 18 19  2  3
 19 20  1  0
 20 21  1  0
 21 22  1  0
 22 23  1  0
 23 24  1  0
 23 25  2  0
 18  1  1  0
  9  4  1  0
 16 11  1  0
  1 26  1  0
  3 27  1  0
  5 28  1  0
  6 29  1  0
  7 30  1  0
  8 31  1  0
 10 32  1  0
 10 33  1  0
 10 34  1  0
 12 35  1  0
 15 36  1  0
 15 37  1  0
 15 38  1  0
 20 39  1  0
 20 40  1  0
 21 41  1  0
 21 42  1  0
 22 43  1  0
 24 44  1  0
 24 45  1  0
 24 46  1  0
M  END
>  <ScrubInfo>  (2) 
{"isomerGroup": 0, "isomerId": 1, "confId": 0, "nr_conformers:": 1, "nr_isomers:": 9}

$$$$
_i2
     RDKit          3D

 46 48  0  0  0  0  0  0  0  0999 V2000
   -0.5081    0.7974   -0.3214 N   0  0  0  0  0  0  0  0  0  0  0  0
    0.2827    1.7929   -0.8396 C   0  0  0  0  0  0  0  0  0  0  0  0
    1.0655    1.4021   -1.8929 N   0  0  0  0  0  0  0  0  0  0  0  0
    2.3478    0.7339   -1.6197 C   0  0  0  0  0  0  0  0  0  0  0  0
    2.1995   -0.6372   -0.9530 C   0  0  0  0  0  0  0  0  0  0  0  0
    3.4685   -1.3318   -0.8092 N   0  0  0  0  0  0  0  0  0  0  0  0
    3.4811   -2.6813   -0.5228 C   0  0  0  0  0  0  0  0  0  0  0  0
    4.8517   -3.2367   -0.2430 C   0  0  0  0  0  0  0  0  0  0  0  0
    2.4727   -3.3776   -0.4812 O   0  0  0  0  0  0  0  0  0  0  0  0
    0.3051    3.0284   -0.4104 N   0  0  0  0  0  0  0  0  0  0  0  0
   -0.5393    3.1938    0.6495 C   0  0  0  0  0  0  0  0  0  0  0  0
   -1.3514    2.2487    1.2494 C   0  0  0  0  0  0  0  0  0  0  0  0
   -2.0028    2.9244    2.2894 C   0  0  0  0  0  0  0  0  0  0  0  0
   -1.6401    4.2124    2.3612 N   0  0  0  0  0  0  0  0  0  0  0  0
   -0.7521    4.3518    1.3454 N   0  0  0  0  0  0  0  0  0  0  0  0
   -0.1469    5.6381    1.1102 C   0  0  0  0  0  0  0  0  0  0  0  0
   -1.3769    0.9001    0.7427 C   0  0  0  0  0  0  0  0  0  0  0  0
   -2.1515    0.0300    1.2996 N   0  0  0  0  0  0  0  0  0  0  0  0
   -2.1410   -1.2691    0.7643 C   0  0  0  0  0  0  0  0  0  0  0  0
   -1.0885   -2.1396    1.0763 C   0  0  0  0  0  0  0  0  0  0  0  0
   -1.0209   -3.4084    0.5027 C   0  0  0  0  0  0  0  0  0  0  0  0
   -2.0214   -3.8275   -0.3694 C   0  0  0  0  0  0  0  0  0  0  0  0
   -3.0914   -2.9813   -0.6638 C   0  0  0  0  0  0  0  0  0  0  0  0
   -3.1654   -1.7001   -0.0962 C   0  0  0  0  0  0  0  0  0  0  0  0
   -4.3161   -0.7946   -0.4332 C   0  0  0  0  0  0  0  0  0  0  0  0
   -0.5433   -0.0648   -0.8434 H   0  0  0  0  0  0  0  0  0  0  0  0
    1.2984    2.2579   -2.3990 H   0  0  0  0  0  0  0  0  0  0  0  0
    2.8714    0.6119   -2.5753 H   0  0  0  0  0  0  0  0  0  0  0  0
    2.9769    1.3857   -1.0006 H   0  0  0  0  0  0  0  0  0  0  0  0
    1.7849   -0.5373    0.0558 H   0  0  0  0  0  0  0  0  0  0  0  0
    1.5137   -1.2679   -1.5309 H   0  0  0  0  0  0  0  0  0  0  0  0
    4.2705   -0.7962   -0.5000 H   0  0  0  0  0  0  0  0  0  0  0  0
    5.6372   -2.5638   -0.5982 H   0  0  0  0  0  0  0  0  0  0  0  0
    4.9626   -4.1936   -0.7604 H   0  0  0  0  0  0  0  0  0  0  0  0
    4.9656   -3.3836    0.8341 H   0  0  0  0  0  0  0  0  0  0  0  0
   -2.7245    2.5354    2.9961 H   0  0  0  0  0  0  0  0  0  0  0  0
   -0.9424    6.3635    0.9221 H   0  0  0  0  0  0  0  0  0  0  0  0
    0.5187    5.5880    0.2458 H   0  0  0  0  0  0  0  0  0  0  0  0
    0.4222    5.9176    2.0005 H   0  0  0  0  0  0  0  0  0  0  0  0
   -0.3070   -1.8200    1.7606 H   0  0  0  0  0  0  0  0  0  0  0  0
   -0.1837   -4.0644    0.7309 H   0  0  0  0  0  0  0  0  0  0  0  0
   -1.9695   -4.8166   -0.8176 H   0  0  0  0  0  0  0  0  0  0  0  0
   -3.8690   -3.3286   -1.3405 H   0  0  0  0  0  0  0  0  0  0  0  0
   -5.0892   -1.3244   -0.9998 H   0  0  0  0  0  0  0  0  0  0  0  0
   -4.7852   -0.4141    0.4800 H   0  0  0  0  0  0  0  0  0  0  0  0
   -3.9688    0.0466   -1.0415 H   0  0  0  0  0  0  0  0  0  0  0  0
  1  2  1  0
  2  3  1  0
  3  4  1  0
  4  5  1  0
  5  6  1  0
  6  7  1  0
  7  8  1  0
  7  9  2  0
  2 10  2  0
 10 11  1  0
 11 12  2  0
 12 13  1  0
 13 14  2  0
 14 15  1  0
 15 16  1  0
 12 17  1  0
 17 18  2  3
 18 19  1  0
 19 20  2  0
 20 21  1  0
 21 22  2  0
 22 23  1  0
 23 24  2  0
 24 25  1  0
 17  1  1  0
 24 19  1  0
 15 11  1  0
  1 26  1  0
  3 27  1  0
  4 28  1  0
  4 29  1  0
  5 30  1  0
  5 31  1  0
  6 32  1  0
  8 33  1  0
  8 34  1  0
  8 35  1  0
 13 36  1  0
 16 37  1  0
 16 38  1  0
 16 39  1  0
 20 40  1  0
 21 41  1  0
 22 42  1  0
 23 43  1  0
 25 44  1  0
 25 45  1  0
 25 46  1  0
M  END
>  <ScrubInfo>  (3) 
{"isomerGroup": 0, "isomerId": 2, "confId": 0, "nr_conformers:": 1, "nr_isomers:": 9}

$$$$
_i3
     RDKit          3D

 46 48  0  0  0  0  0  0  0  0999 V2000
    0.2425   -2.7932   -1.3782 N   0  0  0  0  0  0  0  0  0  0  0  0
    0.5876   -1.5475   -0.9014 C   0  0  0  0  0  0  0  0  0  0  0  0
    1.8353   -1.2045   -0.9423 N   0  0  0  0  0  0  0  0  0  0  0  0
    2.1609    0.1255   -0.4135 C   0  0  0  0  0  0  0  0  0  0  0  0
    3.6633    0.3721   -0.5800 C   0  0  0  0  0  0  0  0  0  0  0  0
    4.0450    1.7299   -0.2330 N   0  0  0  0  0  0  0  0  0  0  0  0
    4.2106    2.1203    1.0754 C   0  0  0  0  0  0  0  0  0  0  0  0
    4.4950    3.5886    1.2449 C   0  0  0  0  0  0  0  0  0  0  0  0
    4.1255    1.3615    2.0348 O   0  0  0  0  0  0  0  0  0  0  0  0
   -0.3608   -0.6744   -0.3971 N   0  0  0  0  0  0  0  0  0  0  0  0
   -1.6132   -1.0293   -0.3475 C   0  0  0  0  0  0  0  0  0  0  0  0
   -2.6790   -0.2818    0.1048 N   0  0  0  0  0  0  0  0  0  0  0  0
   -2.5608    1.0678    0.5091 C   0  0  0  0  0  0  0  0  0  0  0  0
   -3.2186    2.0508   -0.2523 C   0  0  0  0  0  0  0  0  0  0  0  0
   -3.0892    3.4067    0.0520 C   0  0  0  0  0  0  0  0  0  0  0  0
   -2.2896    3.8030    1.1172 C   0  0  0  0  0  0  0  0  0  0  0  0
   -1.6279    2.8433    1.8815 C   0  0  0  0  0  0  0  0  0  0  0  0
   -1.7635    1.4722    1.5982 C   0  0  0  0  0  0  0  0  0  0  0  0
   -1.0390    0.4945    2.4840 C   0  0  0  0  0  0  0  0  0  0  0  0
   -2.0092   -2.3438   -0.8156 C   0  0  0  0  0  0  0  0  0  0  0  0
   -3.1847   -3.1071   -0.9002 C   0  0  0  0  0  0  0  0  0  0  0  0
   -2.9724   -4.3161   -1.4427 N   0  0  0  0  0  0  0  0  0  0  0  0
   -1.6374   -4.3342   -1.6840 N   0  0  0  0  0  0  0  0  0  0  0  0
   -1.0420   -5.5134   -2.2590 C   0  0  0  0  0  0  0  0  0  0  0  0
   -1.0420   -3.1704   -1.3185 C   0  0  0  0  0  0  0  0  0  0  0  0
    1.0196   -3.3531   -1.7016 H   0  0  0  0  0  0  0  0  0  0  0  0
    1.9003    0.1963    0.6488 H   0  0  0  0  0  0  0  0  0  0  0  0
    1.6119    0.9032   -0.9597 H   0  0  0  0  0  0  0  0  0  0  0  0
    3.9629    0.2137   -1.6218 H   0  0  0  0  0  0  0  0  0  0  0  0
    4.2317   -0.3298    0.0410 H   0  0  0  0  0  0  0  0  0  0  0  0
    3.9536    2.4380   -0.9486 H   0  0  0  0  0  0  0  0  0  0  0  0
    4.7986    4.0521    0.3020 H   0  0  0  0  0  0  0  0  0  0  0  0
    5.3090    3.7147    1.9642 H   0  0  0  0  0  0  0  0  0  0  0  0
    3.5950    4.0869    1.6145 H   0  0  0  0  0  0  0  0  0  0  0  0
   -3.5600   -0.4649   -0.3573 H   0  0  0  0  0  0  0  0  0  0  0  0
   -3.8250    1.7676   -1.1089 H   0  0  0  0  0  0  0  0  0  0  0  0
   -3.6013    4.1516   -0.5509 H   0  0  0  0  0  0  0  0  0  0  0  0
   -2.1769    4.8577    1.3537 H   0  0  0  0  0  0  0  0  0  0  0  0
   -1.0028    3.1671    2.7116 H   0  0  0  0  0  0  0  0  0  0  0  0
   -0.0078    0.3658    2.1455 H   0  0  0  0  0  0  0  0  0  0  0  0
   -1.0199    0.8567    3.5181 H   0  0  0  0  0  0  0  0  0  0  0  0
   -1.5371   -0.4794    2.5077 H   0  0  0  0  0  0  0  0  0  0  0  0
   -4.1900   -2.8505   -0.5935 H   0  0  0  0  0  0  0  0  0  0  0  0
   -1.5374   -5.7208   -3.2109 H   0  0  0  0  0  0  0  0  0  0  0  0
   -1.1854   -6.3445   -1.5640 H   0  0  0  0  0  0  0  0  0  0  0  0
    0.0244   -5.3488   -2.4262 H   0  0  0  0  0  0  0  0  0  0  0  0
  1  2  1  0
  2  3  2  3
  3  4  1  0
  4  5  1  0
  5  6  1  0
  6  7  1  0
  7  8  1  0
  7  9  2  0
  2 10  1  0
 10 11  2  0
 11 12  1  0
 12 13  1  0
 13 14  2  0
 14 15  1  0
 15 16  2  0
 16 17  1  0
 17 18  2  0
 18 19  1  0
 11 20  1  0
 20 21  1  0
 21 22  2  0
 22 23  1  0
 23 24  1  0
 23 25  1  0
 25  1  1  0
 18 13  1  0
 25 20  2  0
  1 26  1  0
  4 27  1  0
  4 28  1  0
  5 29  1  0
  5 30  1  0
  6 31  1  0
  8 32  1  0
  8 33  1  0
  8 34  1  0
 12 35  1  0
 14 36  1  0
 15 37  1  0
 16 38  1  0
 17 39  1  0
 19 40  1  0
 19 41  1  0
 19 42  1  0
 21 43  1  0
 24 44  1  0
 24 45  1  0
 24 46  1  0
M  END
>  <ScrubInfo>  (4) 
{"isomerGroup": 0, "isomerId": 3, "confId": 0, "nr_conformers:": 1, "nr_isomers:": 9}

$$$$
_i4
     RDKit          3D

 46 48  0  0  0  0  0  0  0  0999 V2000
   -1.9948   -2.7208   -0.6306 N   0  0  0  0  0  0  0  0  0  0  0  0
   -2.3361   -1.3783   -0.5035 C   0  0  0  0  0  0  0  0  0  0  0  0
   -1.3018   -0.5930   -0.1657 C   0  0  0  0  0  0  0  0  0  0  0  0
   -1.0287    0.8076    0.1307 C   0  0  0  0  0  0  0  0  0  0  0  0
   -1.7975    1.8442    0.0855 N   0  0  0  0  0  0  0  0  0  0  0  0
   -3.1342    1.7233   -0.3103 C   0  0  0  0  0  0  0  0  0  0  0  0
   -3.4560    1.8390   -1.6684 C   0  0  0  0  0  0  0  0  0  0  0  0
   -4.7779    1.7291   -2.0995 C   0  0  0  0  0  0  0  0  0  0  0  0
   -5.7928    1.5153   -1.1709 C   0  0  0  0  0  0  0  0  0  0  0  0
   -5.4884    1.4256    0.1883 C   0  0  0  0  0  0  0  0  0  0  0  0
   -4.1622    1.5433    0.6326 C   0  0  0  0  0  0  0  0  0  0  0  0
   -3.8528    1.4597    2.1008 C   0  0  0  0  0  0  0  0  0  0  0  0
    0.2609    1.0483    0.5268 N   0  0  0  0  0  0  0  0  0  0  0  0
    1.1761    0.1275    0.5790 C   0  0  0  0  0  0  0  0  0  0  0  0
    2.4084    0.5338    0.9952 N   0  0  0  0  0  0  0  0  0  0  0  0
    3.4410   -0.3622    1.4873 C   0  0  0  0  0  0  0  0  0  0  0  0
    4.2083   -1.0176    0.3297 C   0  0  0  0  0  0  0  0  0  0  0  0
    4.7864   -0.0376   -0.5775 N   0  0  0  0  0  0  0  0  0  0  0  0
    5.9311    0.6452   -0.2403 C   0  0  0  0  0  0  0  0  0  0  0  0
    6.3015    1.7400   -1.2035 C   0  0  0  0  0  0  0  0  0  0  0  0
    6.5941    0.4033    0.7633 O   0  0  0  0  0  0  0  0  0  0  0  0
    0.9975   -1.1890    0.2517 N   0  0  0  0  0  0  0  0  0  0  0  0
   -0.1810   -1.5504   -0.1192 C   0  0  0  0  0  0  0  0  0  0  0  0
   -0.6165   -2.8179   -0.5090 N   0  0  0  0  0  0  0  0  0  0  0  0
   -0.0438   -4.0165    0.0730 C   0  0  0  0  0  0  0  0  0  0  0  0
   -2.4096   -3.1667   -1.4523 H   0  0  0  0  0  0  0  0  0  0  0  0
   -3.3625   -1.0924   -0.6818 H   0  0  0  0  0  0  0  0  0  0  0  0
   -2.6649    2.0217   -2.3911 H   0  0  0  0  0  0  0  0  0  0  0  0
   -5.0140    1.8208   -3.1562 H   0  0  0  0  0  0  0  0  0  0  0  0
   -6.8252    1.4347   -1.5021 H   0  0  0  0  0  0  0  0  0  0  0  0
   -6.2950    1.2760    0.9026 H   0  0  0  0  0  0  0  0  0  0  0  0
   -3.3175    0.5312    2.3224 H   0  0  0  0  0  0  0  0  0  0  0  0
   -3.2449    2.3144    2.4150 H   0  0  0  0  0  0  0  0  0  0  0  0
   -4.7674    1.4733    2.7030 H   0  0  0  0  0  0  0  0  0  0  0  0
    2.3905    1.4587    1.4089 H   0  0  0  0  0  0  0  0  0  0  0  0
    3.0087   -1.1291    2.1400 H   0  0  0  0  0  0  0  0  0  0  0  0
    4.1355    0.2221    2.1016 H   0  0  0  0  0  0  0  0  0  0  0  0
    3.5536   -1.6547   -0.2723 H   0  0  0  0  0  0  0  0  0  0  0  0
    5.0118   -1.6446    0.7317 H   0  0  0  0  0  0  0  0  0  0  0  0
    4.1356    0.4096   -1.2115 H   0  0  0  0  0  0  0  0  0  0  0  0
    5.7582    1.6448   -2.1479 H   0  0  0  0  0  0  0  0  0  0  0  0
    7.3722    1.6810   -1.4178 H   0  0  0  0  0  0  0  0  0  0  0  0
    6.0672    2.7077   -0.7526 H   0  0  0  0  0  0  0  0  0  0  0  0
   -0.2705   -4.0766    1.1426 H   0  0  0  0  0  0  0  0  0  0  0  0
    1.0432   -4.0259   -0.0561 H   0  0  0  0  0  0  0  0  0  0  0  0
   -0.4461   -4.9082   -0.4187 H   0  0  0  0  0  0  0  0  0  0  0  0
  1  2  1  0
  2  3  2  0
  3  4  1  0
  4  5  2  3
  5  6  1  0
  6  7  2  0
  7  8  1  0
  8  9  2  0
  9 10  1  0
 10 11  2  0
 11 12  1  0
  4 13  1  0
 13 14  2  0
 14 15  1  0
 15 16  1  0
 16 17  1  0
 17 18  1  0
 18 19  1  0
 19 20  1  0
 19 21  2  0
 14 22  1  0
 22 23  2  0
 23 24  1  0
 24 25  1  0
 24  1  1  0
 23  3  1  0
 11  6  1  0
  1 26  1  0
  2 27  1  0
  7 28  1  0
  8 29  1  0
  9 30  1  0
 10 31  1  0
 12 32  1  0
 12 33  1  0
 12 34  1  0
 15 35  1  0
 16 36  1  0
 16 37  1  0
 17 38  1  0
 17 39  1  0
 18 40  1  0
 20 41  1  0
 20 42  1  0
 20 43  1  0
 25 44  1  0
 25 45  1  0
 25 46  1  0
M  END
>  <ScrubInfo>  (5) 
{"isomerGroup": 0, "isomerId": 4, "confId": 0, "nr_conformers:": 1, "nr_isomers:": 9}

$$$$
_i5
     RDKit          3D

 46 48  0  0  0  0  0  0  0  0999 V2000
    0.5889   -1.0543   -1.3223 N   0  0  0  0  0  0  0  0  0  0  0  0
    0.0674    0.0479   -0.6853 C   0  0  0  0  0  0  0  0  0  0  0  0
    0.9418    1.0763   -0.4824 N   0  0  0  0  0  0  0  0  0  0  0  0
    2.2329    0.8693    0.1690 C   0  0  0  0  0  0  0  0  0  0  0  0
    3.1315    2.0978   -0.0360 C   0  0  0  0  0  0  0  0  0  0  0  0
    4.4135    1.9988    0.6398 N   0  0  0  0  0  0  0  0  0  0  0  0
    5.3757    1.1103    0.2160 C   0  0  0  0  0  0  0  0  0  0  0  0
    6.6895    1.2237    0.9412 C   0  0  0  0  0  0  0  0  0  0  0  0
    5.1901    0.2910   -0.6780 O   0  0  0  0  0  0  0  0  0  0  0  0
   -1.1695    0.1878   -0.2932 N   0  0  0  0  0  0  0  0  0  0  0  0
   -2.0664   -0.8523   -0.5060 C   0  0  0  0  0  0  0  0  0  0  0  0
   -3.3054   -0.8394   -0.1307 N   0  0  0  0  0  0  0  0  0  0  0  0
   -3.7839    0.2978    0.5400 C   0  0  0  0  0  0  0  0  0  0  0  0
   -4.2911    1.3704   -0.2041 C   0  0  0  0  0  0  0  0  0  0  0  0
   -4.8001    2.5033    0.4314 C   0  0  0  0  0  0  0  0  0  0  0  0
   -4.8156    2.5686    1.8218 C   0  0  0  0  0  0  0  0  0  0  0  0
   -4.3291    1.4998    2.5758 C   0  0  0  0  0  0  0  0  0  0  0  0
   -3.8206    0.3531    1.9452 C   0  0  0  0  0  0  0  0  0  0  0  0
   -3.3036   -0.7904    2.7705 C   0  0  0  0  0  0  0  0  0  0  0  0
   -1.5684   -2.0178   -1.1915 C   0  0  0  0  0  0  0  0  0  0  0  0
   -2.1050   -3.2361   -1.6280 C   0  0  0  0  0  0  0  0  0  0  0  0
   -1.1920   -3.9996   -2.2525 N   0  0  0  0  0  0  0  0  0  0  0  0
   -0.0604   -3.2511   -2.2098 N   0  0  0  0  0  0  0  0  0  0  0  0
    1.1485   -3.7716   -2.7951 C   0  0  0  0  0  0  0  0  0  0  0  0
   -0.2575   -2.0664   -1.5757 C   0  0  0  0  0  0  0  0  0  0  0  0
    1.5085   -0.9668   -1.7352 H   0  0  0  0  0  0  0  0  0  0  0  0
    0.4256    1.8340   -0.0372 H   0  0  0  0  0  0  0  0  0  0  0  0
    2.7287   -0.0231   -0.2239 H   0  0  0  0  0  0  0  0  0  0  0  0
    2.0733    0.6997    1.2406 H   0  0  0  0  0  0  0  0  0  0  0  0
    2.6357    2.9961    0.3486 H   0  0  0  0  0  0  0  0  0  0  0  0
    3.3188    2.2544   -1.1049 H   0  0  0  0  0  0  0  0  0  0  0  0
    4.6871    2.7549    1.2550 H   0  0  0  0  0  0  0  0  0  0  0  0
    6.6074    1.8546    1.8306 H   0  0  0  0  0  0  0  0  0  0  0  0
    7.0101    0.2272    1.2570 H   0  0  0  0  0  0  0  0  0  0  0  0
    7.4337    1.6552    0.2668 H   0  0  0  0  0  0  0  0  0  0  0  0
   -4.2831    1.3171   -1.2891 H   0  0  0  0  0  0  0  0  0  0  0  0
   -5.1851    3.3291   -0.1599 H   0  0  0  0  0  0  0  0  0  0  0  0
   -5.2121    3.4490    2.3205 H   0  0  0  0  0  0  0  0  0  0  0  0
   -4.3543    1.5627    3.6611 H   0  0  0  0  0  0  0  0  0  0  0  0
   -3.7808   -1.7285    2.4688 H   0  0  0  0  0  0  0  0  0  0  0  0
   -3.5173   -0.6444    3.8347 H   0  0  0  0  0  0  0  0  0  0  0  0
   -2.2188   -0.8802    2.6550 H   0  0  0  0  0  0  0  0  0  0  0  0
   -3.1191   -3.6001   -1.5234 H   0  0  0  0  0  0  0  0  0  0  0  0
    0.9903   -3.8782   -3.8712 H   0  0  0  0  0  0  0  0  0  0  0  0
    1.3622   -4.7428   -2.3417 H   0  0  0  0  0  0  0  0  0  0  0  0
    1.9782   -3.0870   -2.6070 H   0  0  0  0  0  0  0  0  0  0  0  0
  1  2  1  0
  2  3  1  0
  3  4  1  0
  4  5  1  0
  5  6  1  0
  6  7  1  0
  7  8  1  0
  7  9  2  0
  2 10  2  0
 10 11  1  0
 11 12  2  3
 12 13  1  0
 13 14  2  0
 14 15  1  0
 15 16  2  0
 16 17  1  0
 17 18  2  0
 18 19  1  0
 11 20  1  0
 20 21  1  0
 21 22  2  0
 22 23  1  0
 23 24  1  0
 23 25  1  0
 25  1  1  0
 18 13  1  0
 25 20  2  0
  1 26  1  0
  3 27  1  0
  4 28  1  0
  4 29  1  0
  5 30  1  0
  5 31  1  0
  6 32  1  0
  8 33  1  0
  8 34  1  0
  8 35  1  0
 14 36  1  0
 15 37  1  0
 16 38  1  0
 17 39  1  0
 19 40  1  0
 19 41  1  0
 19 42  1  0
 21 43  1  0
 24 44  1  0
 24 45  1  0
 24 46  1  0
M  END
>  <ScrubInfo>  (6) 
{"isomerGroup": 0, "isomerId": 5, "confId": 0, "nr_conformers:": 1, "nr_isomers:": 9}

$$$$
_i6
     RDKit          3D

 46 48  0  0  0  0  0  0  0  0999 V2000
   -0.9548   -2.6375   -1.3516 N   0  0  0  0  0  0  0  0  0  0  0  0
   -1.7380   -1.5062   -1.1410 C   0  0  0  0  0  0  0  0  0  0  0  0
   -1.0470   -0.4790   -0.6280 C   0  0  0  0  0  0  0  0  0  0  0  0
   -1.2688    0.8997   -0.1929 C   0  0  0  0  0  0  0  0  0  0  0  0
   -2.4833    1.5465   -0.2833 N   0  0  0  0  0  0  0  0  0  0  0  0
   -3.7099    0.9913    0.1612 C   0  0  0  0  0  0  0  0  0  0  0  0
   -3.7638    0.1157    1.2575 C   0  0  0  0  0  0  0  0  0  0  0  0
   -4.9845   -0.3725    1.7257 C   0  0  0  0  0  0  0  0  0  0  0  0
   -6.1708    0.0276    1.1202 C   0  0  0  0  0  0  0  0  0  0  0  0
   -6.1386    0.9242    0.0533 C   0  0  0  0  0  0  0  0  0  0  0  0
   -4.9167    1.4213   -0.4279 C   0  0  0  0  0  0  0  0  0  0  0  0
   -4.9158    2.3940   -1.5761 C   0  0  0  0  0  0  0  0  0  0  0  0
   -0.2530    1.5730    0.2755 N   0  0  0  0  0  0  0  0  0  0  0  0
    0.9682    0.9444    0.3893 C   0  0  0  0  0  0  0  0  0  0  0  0
    1.8667    1.6560    0.9741 N   0  0  0  0  0  0  0  0  0  0  0  0
    3.1936    1.0660    1.1778 C   0  0  0  0  0  0  0  0  0  0  0  0
    4.0600    1.2013   -0.0784 C   0  0  0  0  0  0  0  0  0  0  0  0
    5.4480    0.8457    0.1651 N   0  0  0  0  0  0  0  0  0  0  0  0
    5.8648   -0.4643    0.2087 C   0  0  0  0  0  0  0  0  0  0  0  0
    7.3202   -0.6307    0.5555 C   0  0  0  0  0  0  0  0  0  0  0  0
    5.1349   -1.4282    0.0028 O   0  0  0  0  0  0  0  0  0  0  0  0
    1.2900   -0.3123   -0.0594 N   0  0  0  0  0  0  0  0  0  0  0  0
    0.3321   -1.0043   -0.5671 C   0  0  0  0  0  0  0  0  0  0  0  0
    0.3688   -2.2850   -1.1133 N   0  0  0  0  0  0  0  0  0  0  0  0
    1.3084   -3.2795   -0.6318 C   0  0  0  0  0  0  0  0  0  0  0  0
   -1.1408   -3.0989   -2.2450 H   0  0  0  0  0  0  0  0  0  0  0  0
   -2.7874   -1.5352   -1.3989 H   0  0  0  0  0  0  0  0  0  0  0  0
   -2.3957    2.4931    0.0831 H   0  0  0  0  0  0  0  0  0  0  0  0
   -2.8548   -0.1875    1.7721 H   0  0  0  0  0  0  0  0  0  0  0  0
   -5.0074   -1.0556    2.5711 H   0  0  0  0  0  0  0  0  0  0  0  0
   -7.1228   -0.3483    1.4864 H   0  0  0  0  0  0  0  0  0  0  0  0
   -7.0768    1.2377   -0.3997 H   0  0  0  0  0  0  0  0  0  0  0  0
   -4.3396    1.9905   -2.4151 H   0  0  0  0  0  0  0  0  0  0  0  0
   -5.9307    2.5905   -1.9375 H   0  0  0  0  0  0  0  0  0  0  0  0
   -4.4845    3.3502   -1.2629 H   0  0  0  0  0  0  0  0  0  0  0  0
    3.1424    0.0257    1.5229 H   0  0  0  0  0  0  0  0  0  0  0  0
    3.6704    1.6148    1.9996 H   0  0  0  0  0  0  0  0  0  0  0  0
    4.0556    2.2380   -0.4323 H   0  0  0  0  0  0  0  0  0  0  0  0
    3.6761    0.5730   -0.8890 H   0  0  0  0  0  0  0  0  0  0  0  0
    6.0674    1.5747    0.4918 H   0  0  0  0  0  0  0  0  0  0  0  0
    7.8712    0.3076    0.4463 H   0  0  0  0  0  0  0  0  0  0  0  0
    7.4044   -0.9760    1.5891 H   0  0  0  0  0  0  0  0  0  0  0  0
    7.7663   -1.3680   -0.1179 H   0  0  0  0  0  0  0  0  0  0  0  0
    2.3333   -2.8982   -0.6823 H   0  0  0  0  0  0  0  0  0  0  0  0
    1.0864   -3.5534    0.4048 H   0  0  0  0  0  0  0  0  0  0  0  0
    1.2564   -4.1821   -1.2491 H   0  0  0  0  0  0  0  0  0  0  0  0
  1  2  1  0
  2  3  2  0
  3  4  1  0
  4  5  1  0
  5  6  1  0
  6  7  2  0
  7  8  1  0
  8  9  2  0
  9 10  1  0
 10 11  2  0
 11 12  1  0
  4 13  2  0
 13 14  1  0
 14 15  2  3
 15 16  1  0
 16 17  1  0
 17 18  1  0
 18 19  1  0
 19 20  1  0
 19 21  2  0
 14 22  1  0
 22 23  2  0
 23 24  1  0
 24 25  1  0
 24  1  1  0
 23  3  1  0
 11  6  1  0
  1 26  1  0
  2 27  1  0
  5 28  1  0
  7 29  1  0
  8 30  1  0
  9 31  1  0
 10 32  1  0
 12 33  1  0
 12 34  1  0
 12 35  1  0
 16 36  1  0
 16 37  1  0
 17 38  1  0
 17 39  1  0
 18 40  1  0
 20 41  1  0
 20 42  1  0
 20 43  1  0
 25 44  1  0
 25 45  1  0
 25 46  1  0
M  END
>  <ScrubInfo>  (7) 
{"isomerGroup": 0, "isomerId": 6, "confId": 0, "nr_conformers:": 1, "nr_isomers:": 9}

$$$$
_i7
     RDKit          3D

 46 48  0  0  0  0  0  0  0  0999 V2000
   -1.8621   -2.8642   -0.1339 N   0  0  0  0  0  0  0  0  0  0  0  0
   -2.2444   -1.5419   -0.3290 C   0  0  0  0  0  0  0  0  0  0  0  0
   -1.2919   -0.6557   -0.0057 C   0  0  0  0  0  0  0  0  0  0  0  0
   -1.0487    0.8002   -0.0086 C   0  0  0  0  0  0  0  0  0  0  0  0
   -1.8473    1.7693   -0.3454 N   0  0  0  0  0  0  0  0  0  0  0  0
   -3.1522    1.5034   -0.7796 C   0  0  0  0  0  0  0  0  0  0  0  0
   -3.3901    1.3257   -2.1480 C   0  0  0  0  0  0  0  0  0  0  0  0
   -4.6770    1.0676   -2.6197 C   0  0  0  0  0  0  0  0  0  0  0  0
   -5.7411    0.9984   -1.7248 C   0  0  0  0  0  0  0  0  0  0  0  0
   -5.5211    1.2000   -0.3614 C   0  0  0  0  0  0  0  0  0  0  0  0
   -4.2311    1.4691    0.1222 C   0  0  0  0  0  0  0  0  0  0  0  0
   -4.0157    1.6961    1.5919 C   0  0  0  0  0  0  0  0  0  0  0  0
    0.2161    1.1127    0.4106 N   0  0  0  0  0  0  0  0  0  0  0  0
    1.1929    0.2512    0.8208 C   0  0  0  0  0  0  0  0  0  0  0  0
    2.3416    0.7390    1.1583 N   0  0  0  0  0  0  0  0  0  0  0  0
    3.3800   -0.1929    1.6348 C   0  0  0  0  0  0  0  0  0  0  0  0
    4.1637   -0.7761    0.4545 C   0  0  0  0  0  0  0  0  0  0  0  0
    4.8053    0.2693   -0.3259 N   0  0  0  0  0  0  0  0  0  0  0  0
    6.0504    0.7447    0.0152 C   0  0  0  0  0  0  0  0  0  0  0  0
    6.4733    1.9628   -0.7611 C   0  0  0  0  0  0  0  0  0  0  0  0
    6.7660    0.2405    0.8746 O   0  0  0  0  0  0  0  0  0  0  0  0
    0.9781   -1.1088    0.8719 N   0  0  0  0  0  0  0  0  0  0  0  0
   -0.1874   -1.5436    0.5043 C   0  0  0  0  0  0  0  0  0  0  0  0
   -0.6277   -2.8690    0.4984 N   0  0  0  0  0  0  0  0  0  0  0  0
    0.2898   -3.9645    0.2499 C   0  0  0  0  0  0  0  0  0  0  0  0
   -2.5923   -3.4384    0.2942 H   0  0  0  0  0  0  0  0  0  0  0  0
   -3.2364   -1.3482   -0.7100 H   0  0  0  0  0  0  0  0  0  0  0  0
   -2.5619    1.3906   -2.8486 H   0  0  0  0  0  0  0  0  0  0  0  0
   -4.8479    0.9286   -3.6839 H   0  0  0  0  0  0  0  0  0  0  0  0
   -6.7463    0.8015   -2.0892 H   0  0  0  0  0  0  0  0  0  0  0  0
   -6.3662    1.1584    0.3223 H   0  0  0  0  0  0  0  0  0  0  0  0
   -3.4832    0.8470    2.0316 H   0  0  0  0  0  0  0  0  0  0  0  0
   -3.4411    2.6127    1.7601 H   0  0  0  0  0  0  0  0  0  0  0  0
   -4.9674    1.8091    2.1220 H   0  0  0  0  0  0  0  0  0  0  0  0
    0.4562    2.0922    0.4372 H   0  0  0  0  0  0  0  0  0  0  0  0
    2.9672   -0.9929    2.2604 H   0  0  0  0  0  0  0  0  0  0  0  0
    4.0572    0.3757    2.2831 H   0  0  0  0  0  0  0  0  0  0  0  0
    3.5013   -1.3162   -0.2291 H   0  0  0  0  0  0  0  0  0  0  0  0
    4.9222   -1.4761    0.8203 H   0  0  0  0  0  0  0  0  0  0  0  0
    4.1717    0.9063   -0.7911 H   0  0  0  0  0  0  0  0  0  0  0  0
    5.8423    2.1189   -1.6406 H   0  0  0  0  0  0  0  0  0  0  0  0
    7.5046    1.8308   -1.1000 H   0  0  0  0  0  0  0  0  0  0  0  0
    6.4065    2.8407   -0.1134 H   0  0  0  0  0  0  0  0  0  0  0  0
   -0.2196   -4.9250    0.3790 H   0  0  0  0  0  0  0  0  0  0  0  0
    1.1273   -3.9337    0.9542 H   0  0  0  0  0  0  0  0  0  0  0  0
    0.6867   -3.9153   -0.7694 H   0  0  0  0  0  0  0  0  0  0  0  0
  1  2  1  0
  2  3  2  0
  3  4  1  0
  4  5  2  3
  5  6  1  0
  6  7  2  0
  7  8  1  0
  8  9  2  0
  9 10  1  0
 10 11  2  0
 11 12  1  0
  4 13  1  0
 13 14  1  0
 14 15  2  3
 15 16  1  0
 16 17  1  0
 17 18  1  0
 18 19  1  0
 19 20  1  0
 19 21  2  0
 14 22  1  0
 22 23  2  0
 23 24  1  0
 24 25  1  0
 24  1  1  0
 23  3  1  0
 11  6  1  0
  1 26  1  0
  2 27  1  0
  7 28  1  0
  8 29  1  0
  9 30  1  0
 10 31  1  0
 12 32  1  0
 12 33  1  0
 12 34  1  0
 13 35  1  0
 16 36  1  0
 16 37  1  0
 17 38  1  0
 17 39  1  0
 18 40  1  0
 20 41  1  0
 20 42  1  0
 20 43  1  0
 25 44  1  0
 25 45  1  0
 25 46  1  0
M  END
>  <ScrubInfo>  (8) 
{"isomerGroup": 0, "isomerId": 7, "confId": 0, "nr_conformers:": 1, "nr_isomers:": 9}

$$$$
_i8
     RDKit          3D

 46 48  0  0  0  0  0  0  0  0999 V2000
    0.4744   -1.9082   -1.3012 N   0  0  0  0  0  0  0  0  0  0  0  0
    0.5381   -0.8688   -0.3836 C   0  0  0  0  0  0  0  0  0  0  0  0
    1.5618   -0.4744    0.2985 N   0  0  0  0  0  0  0  0  0  0  0  0
    2.8289   -1.1934    0.1161 C   0  0  0  0  0  0  0  0  0  0  0  0
    3.8941   -0.5646    1.0173 C   0  0  0  0  0  0  0  0  0  0  0  0
    4.0442    0.8517    0.7408 N   0  0  0  0  0  0  0  0  0  0  0  0
    5.1282    1.5541    1.2085 C   0  0  0  0  0  0  0  0  0  0  0  0
    5.0341    3.0413    0.9990 C   0  0  0  0  0  0  0  0  0  0  0  0
    6.0955    1.0323    1.7534 O   0  0  0  0  0  0  0  0  0  0  0  0
   -0.6610   -0.2051   -0.2118 N   0  0  0  0  0  0  0  0  0  0  0  0
   -1.8995   -0.4038   -0.7904 C   0  0  0  0  0  0  0  0  0  0  0  0
   -3.0241    0.2105   -0.6268 N   0  0  0  0  0  0  0  0  0  0  0  0
   -3.0579    1.2779    0.2833 C   0  0  0  0  0  0  0  0  0  0  0  0
   -2.7885    2.5721   -0.1775 C   0  0  0  0  0  0  0  0  0  0  0  0
   -2.7908    3.6554    0.7006 C   0  0  0  0  0  0  0  0  0  0  0  0
   -3.0710    3.4523    2.0489 C   0  0  0  0  0  0  0  0  0  0  0  0
   -3.3604    2.1697    2.5166 C   0  0  0  0  0  0  0  0  0  0  0  0
   -3.3706    1.0746    1.6391 C   0  0  0  0  0  0  0  0  0  0  0  0
   -3.6895   -0.2984    2.1603 C   0  0  0  0  0  0  0  0  0  0  0  0
   -1.8577   -1.5028   -1.7242 C   0  0  0  0  0  0  0  0  0  0  0  0
   -2.7905   -2.1264   -2.5649 C   0  0  0  0  0  0  0  0  0  0  0  0
   -2.2508   -3.1402   -3.2587 N   0  0  0  0  0  0  0  0  0  0  0  0
   -0.9569   -3.1580   -2.8562 N   0  0  0  0  0  0  0  0  0  0  0  0
   -0.0700   -4.1472   -3.4143 C   0  0  0  0  0  0  0  0  0  0  0  0
   -0.6882   -2.1924   -1.9334 C   0  0  0  0  0  0  0  0  0  0  0  0
    1.3223   -2.4312   -1.4712 H   0  0  0  0  0  0  0  0  0  0  0  0
    2.7162   -2.2503    0.3833 H   0  0  0  0  0  0  0  0  0  0  0  0
    3.1546   -1.1207   -0.9287 H   0  0  0  0  0  0  0  0  0  0  0  0
    4.8578   -1.0658    0.8771 H   0  0  0  0  0  0  0  0  0  0  0  0
    3.6115   -0.6600    2.0719 H   0  0  0  0  0  0  0  0  0  0  0  0
    3.1756    1.3492    0.5806 H   0  0  0  0  0  0  0  0  0  0  0  0
    5.9715    3.4013    0.5660 H   0  0  0  0  0  0  0  0  0  0  0  0
    4.2199    3.3019    0.3168 H   0  0  0  0  0  0  0  0  0  0  0  0
    4.8606    3.5280    1.9622 H   0  0  0  0  0  0  0  0  0  0  0  0
   -0.6119    0.5412    0.4665 H   0  0  0  0  0  0  0  0  0  0  0  0
   -2.5781    2.7327   -1.2318 H   0  0  0  0  0  0  0  0  0  0  0  0
   -2.5808    4.6556    0.3310 H   0  0  0  0  0  0  0  0  0  0  0  0
   -3.0762    4.2946    2.7365 H   0  0  0  0  0  0  0  0  0  0  0  0
   -3.5889    2.0306    3.5712 H   0  0  0  0  0  0  0  0  0  0  0  0
   -4.4434   -0.7840    1.5321 H   0  0  0  0  0  0  0  0  0  0  0  0
   -2.7843   -0.9132    2.1830 H   0  0  0  0  0  0  0  0  0  0  0  0
   -4.0953   -0.2549    3.1766 H   0  0  0  0  0  0  0  0  0  0  0  0
   -3.8378   -1.8876   -2.7009 H   0  0  0  0  0  0  0  0  0  0  0  0
   -0.1688   -4.1290   -4.5028 H   0  0  0  0  0  0  0  0  0  0  0  0
   -0.3581   -5.1251   -3.0207 H   0  0  0  0  0  0  0  0  0  0  0  0
    0.9619   -3.9215   -3.1382 H   0  0  0  0  0  0  0  0  0  0  0  0
  1  2  1  0
  2  3  2  3
  3  4  1  0
  4  5  1  0
  5  6  1  0
  6  7  1  0
  7  8  1  0
  7  9  2  0
  2 10  1  0
 10 11  1  0
 11 12  2  3
 12 13  1  0
 13 14  2  0
 14 15  1  0
 15 16  2  0
 16 17  1  0
 17 18  2  0
 18 19  1  0
 11 20  1  0
 20 21  1  0
 21 22  2  0
 22 23  1  0
 23 24  1  0
 23 25  1  0
 25  1  1  0
 18 13  1  0
 25 20  2  0
  1 26  1  0
  4 27  1  0
  4 28  1  0
  5 29  1  0
  5 30  1  0
  6 31  1  0
  8 32  1  0
  8 33  1  0
  8 34  1  0
 10 35  1  0
 14 36  1  0
 15 37  1  0
 16 38  1  0
 17 39  1  0
 19 40  1  0
 19 41  1  0
 19 42  1  0
 21 43  1  0
 24 44  1  0
 24 45  1  0
 24 46  1  0
M  END
>  <ScrubInfo>  (9) 
{"isomerGroup": 0, "isomerId": 8, "confId": 0, "nr_conformers:": 1, "nr_isomers:": 9}

$$$$
