_i0
     RDKit          3D

 46 48  0  0  0  0  0  0  0  0999 V2000
    7.4268    1.0057    0.3540 C   0  0  0  0  0  0  0  0  0  0  0  0
    6.1588    0.8209    1.1443 C   0  0  0  0  0  0  0  0  0  0  0  0
    6.1719    0.6027    2.3503 O   0  0  0  0  0  0  0  0  0  0  0  0
    5.0110    0.9098    0.3875 N   0  0  0  0  0  0  0  0  0  0  0  0
    3.7102    0.6029    0.9681 C   0  0  0  0  0  0  0  0  0  0  0  0
    2.5719    1.3279    0.2370 C   0  0  0  0  0  0  0  0  0  0  0  0
    1.2672    0.9936    0.7855 N   0  0  0  0  0  0  0  0  0  0  0  0
    0.6315   -0.0972    0.2048 C   0  0  0  0  0  0  0  0  0  0  0  0
   -0.7048    0.0216    0.1176 N   0  0  0  0  0  0  0  0  0  0  0  0
   -1.4628   -0.9699   -0.4212 C   0  0  0  0  0  0  0  0  0  0  0  0
   -2.8545   -0.8641   -0.5351 N   0  0  0  0  0  0  0  0  0  0  0  0
   -3.7866    0.1043   -0.1105 C   0  0  0  0  0  0  0  0  0  0  0  0
   -3.4461    1.1898    0.7031 C   0  0  0  0  0  0  0  0  0  0  0  0
   -4.3997    2.1406    1.0911 C   0  0  0  0  0  0  0  0  0  0  0  0
   -5.7252    2.0397    0.6625 C   0  0  0  0  0  0  0  0  0  0  0  0
   -6.7493    3.0404    1.1077 C   0  0  0  0  0  0  0  0  0  0  0  0
   -6.0905    0.9561   -0.1396 C   0  0  0  0  0  0  0  0  0  0  0  0
   -5.1328    0.0089   -0.5225 C   0  0  0  0  0  0  0  0  0  0  0  0
   -5.7137   -1.4325   -1.6262 Br  0  0  0  0  0  0  0  0  0  0  0  0
   -0.7807   -2.1035   -0.8814 C   0  0  0  0  0  0  0  0  0  0  0  0
   -1.0810   -3.3403   -1.4904 C   0  0  0  0  0  0  0  0  0  0  0  0
    0.0063   -4.0833   -1.7250 N   0  0  0  0  0  0  0  0  0  0  0  0
    1.0135   -3.3159   -1.2474 N   0  0  0  0  0  0  0  0  0  0  0  0
    2.3674   -3.8064   -1.3049 C   0  0  0  0  0  0  0  0  0  0  0  0
    0.5933   -2.1148   -0.7449 C   0  0  0  0  0  0  0  0  0  0  0  0
    1.3520   -1.1419   -0.2212 N   0  0  0  0  0  0  0  0  0  0  0  0
    8.1034    1.6600    0.9107 H   0  0  0  0  0  0  0  0  0  0  0  0
    7.2309    1.4664   -0.6183 H   0  0  0  0  0  0  0  0  0  0  0  0
    7.8983    0.0316    0.2004 H   0  0  0  0  0  0  0  0  0  0  0  0
    5.1093    0.7902   -0.6123 H   0  0  0  0  0  0  0  0  0  0  0  0
    3.7083    0.8805    2.0287 H   0  0  0  0  0  0  0  0  0  0  0  0
    3.5947   -0.4846    0.9210 H   0  0  0  0  0  0  0  0  0  0  0  0
    2.7231    2.4080    0.3592 H   0  0  0  0  0  0  0  0  0  0  0  0
    2.6181    1.1455   -0.8451 H   0  0  0  0  0  0  0  0  0  0  0  0
    0.5844    1.7445    0.7579 H   0  0  0  0  0  0  0  0  0  0  0  0
   -3.2910   -1.6334   -1.0289 H   0  0  0  0  0  0  0  0  0  0  0  0
   -2.4329    1.3141    1.0719 H   0  0  0  0  0  0  0  0  0  0  0  0
   -4.0910    2.9614    1.7357 H   0  0  0  0  0  0  0  0  0  0  0  0
   -7.2106    2.7123    2.0442 H   0  0  0  0  0  0  0  0  0  0  0  0
   -6.2932    4.0237    1.2631 H   0  0  0  0  0  0  0  0  0  0  0  0
   -7.5314    3.1616    0.3508 H   0  0  0  0  0  0  0  0  0  0  0  0
   -7.1222    0.8505   -0.4669 H   0  0  0  0  0  0  0  0  0  0  0  0
   -2.0479   -3.7348   -1.7745 H   0  0  0  0  0  0  0  0  0  0  0  0
    2.6272   -3.9757   -2.3529 H   0  0  0  0  0  0  0  0  0  0  0  0
    2.4184   -4.7421   -0.7423 H   0  0  0  0  0  0  0  0  0  0  0  0
    3.0502   -3.0744   -0.8676 H   0  0  0  0  0  0  0  0  0  0  0  0
  1  2  1  0
  2  3  2  0
  2  4  1  0
  4  5  1  0
  5  6  1  0
  6  7  1  0
  7  8  1  0
  8  9  2  0
  9 10  1  0
 10 11  1  0
 11 12  1  0
 12 13  2  0
 13 14  1  0
 14 15  2  0
 15 16  1  0
 15 17  1  0
 17 18  2  0
 18 19  1  0
 10 20  2  0
 20 21  1  0
 21 22  2  0
 22 23  1  0
 23 24  1  0
 23 25  1  0
 25 26  2  0
 26  8  1  0
 18 12  1  0
 25 20  1  0
  1 27  1  0
  1 28  1  0
  1 29  1  0
  4 30  1  0
  5 31  1  0
  5 32  1  0
  6 33  1  0
  6 34  1  0
  7 35  1  0
 11 36  1  0
 13 37  1  0
 14 38  1  0
 16 39  1  0
 16 40  1  0
 16 41  1  0
 17 42  1  0
 21 43  1  0
 24 44  1  0
 24 45  1  0
 24 46  1  0
M  END
>  <ScrubInfo>  (1) 
{"isomerGroup": 0, "isomerId": 0, "confId": 0, "nr_conformers:": 1, "nr_isomers:": 9}

$$$$
_i1
     RDKit          3D

 46 48  0  0  0  0  0  0  0  0999 V2000
   -0.4262   -0.4609    0.2157 N   0  0  0  0  0  0  0  0  0  0  0  0
   -1.3897   -1.3224   -0.2740 C   0  0  0  0  0  0  0  0  0  0  0  0
   -2.6502   -0.9096   -0.6962 N   0  0  0  0  0  0  0  0  0  0  0  0
   -3.1756    0.3877   -0.4901 C   0  0  0  0  0  0  0  0  0  0  0  0
   -4.1492    0.5632    0.5051 C   0  0  0  0  0  0  0  0  0  0  0  0
   -4.6589    1.8313    0.7999 C   0  0  0  0  0  0  0  0  0  0  0  0
   -4.1942    2.9587    0.1172 C   0  0  0  0  0  0  0  0  0  0  0  0
   -4.7634    4.3156    0.4108 C   0  0  0  0  0  0  0  0  0  0  0  0
   -3.2308    2.7956   -0.8846 C   0  0  0  0  0  0  0  0  0  0  0  0
   -2.7196    1.5258   -1.1800 C   0  0  0  0  0  0  0  0  0  0  0  0
   -1.4454    1.4066   -2.5879 Br  0  0  0  0  0  0  0  0  0  0  0  0
   -1.0156   -2.6078   -0.3154 C   0  0  0  0  0  0  0  0  0  0  0  0
   -1.5766   -3.8900   -0.7542 C   0  0  0  0  0  0  0  0  0  0  0  0
   -0.7544   -4.8946   -0.5886 N   0  0  0  0  0  0  0  0  0  0  0  0
    0.3910   -4.3452    0.0113 N   0  0  0  0  0  0  0  0  0  0  0  0
    1.6062   -5.1235    0.0359 C   0  0  0  0  0  0  0  0  0  0  0  0
    0.3400   -2.9681    0.1575 C   0  0  0  0  0  0  0  0  0  0  0  0
    1.2316   -2.1405    0.5864 N   0  0  0  0  0  0  0  0  0  0  0  0
    0.8356   -0.8221    0.6063 C   0  0  0  0  0  0  0  0  0  0  0  0
    1.6545    0.1030    0.9836 N   0  0  0  0  0  0  0  0  0  0  0  0
    3.0022   -0.3000    1.4226 C   0  0  0  0  0  0  0  0  0  0  0  0
    3.9440   -0.4295    0.2208 C   0  0  0  0  0  0  0  0  0  0  0  0
    4.0210    0.8132   -0.5300 N   0  0  0  0  0  0  0  0  0  0  0  0
    4.9080    1.8024   -0.1746 C   0  0  0  0  0  0  0  0  0  0  0  0
    4.7061    3.0976   -0.9143 C   0  0  0  0  0  0  0  0  0  0  0  0
    5.7883    1.6662    0.6689 O   0  0  0  0  0  0  0  0  0  0  0  0
   -0.6380    0.5251    0.2367 H   0  0  0  0  0  0  0  0  0  0  0  0
   -3.3589   -1.6316   -0.5976 H   0  0  0  0  0  0  0  0  0  0  0  0
   -4.5124   -0.2891    1.0748 H   0  0  0  0  0  0  0  0  0  0  0  0
   -5.4167    1.9325    1.5747 H   0  0  0  0  0  0  0  0  0  0  0  0
   -4.0156    5.0974    0.2410 H   0  0  0  0  0  0  0  0  0  0  0  0
   -5.0781    4.3895    1.4570 H   0  0  0  0  0  0  0  0  0  0  0  0
   -5.6276    4.5058   -0.2330 H   0  0  0  0  0  0  0  0  0  0  0  0
   -2.8813    3.6641   -1.4394 H   0  0  0  0  0  0  0  0  0  0  0  0
   -2.5811   -3.9512   -1.1918 H   0  0  0  0  0  0  0  0  0  0  0  0
    1.3844   -6.1836    0.1963 H   0  0  0  0  0  0  0  0  0  0  0  0
    2.2642   -4.7941    0.8464 H   0  0  0  0  0  0  0  0  0  0  0  0
    2.1431   -5.0213   -0.9123 H   0  0  0  0  0  0  0  0  0  0  0  0
    3.3724    0.4801    2.0983 H   0  0  0  0  0  0  0  0  0  0  0  0
    2.9907   -1.2258    2.0098 H   0  0  0  0  0  0  0  0  0  0  0  0
    4.9454   -0.7142    0.5604 H   0  0  0  0  0  0  0  0  0  0  0  0
    3.5887   -1.1947   -0.4761 H   0  0  0  0  0  0  0  0  0  0  0  0
    3.1552    1.0968   -0.9704 H   0  0  0  0  0  0  0  0  0  0  0  0
    4.2500    3.8271   -0.2401 H   0  0  0  0  0  0  0  0  0  0  0  0
    4.0611    2.9664   -1.7877 H   0  0  0  0  0  0  0  0  0  0  0  0
    5.6757    3.4679   -1.2586 H   0  0  0  0  0  0  0  0  0  0  0  0
  1  2  1  0
  2  3  1  0
  3  4  1  0
  4  5  2  0
  5  6  1  0
  6  7  2  0
  7  8  1  0
  7  9  1  0
  9 10  2  0
 10 11  1  0
  2 12  2  0
 12 13  1  0
 13 14  2  0
 14 15  1  0
 15 16  1  0
 15 17  1  0
 17 18  2  0
 18 19  1  0
 19 20  2  3
 20 21  1  0
 21 22  1  0
 22 23  1  0
 23 24  1  0
 24 25  1  0
 24 26  2  0
 19  1  1  0
 10  4  1  0
 17 12  1  0
  1 27  1  0
  3 28  1  0
  5 29  1  0
  6 30  1  0
  8 31  1  0
  8 32  1  0
  8 33  1  0
  9 34  1  0
 13 35  1  0
 16 36  1  0
 16 37  1  0
 16 38  1  0
 21 39  1  0
 21 40  1  0
 22 41  1  0
 22 42  1  0
 23 43  1  0
 25 44  1  0
 25 45  1  0
 25 46  1  0
M  END
>  <ScrubInfo>  (2) 
{"isomerGroup": 0, "isomerId": 1, "confId": 0, "nr_conformers:": 1, "nr_isomers:": 9}

$$$$
_i2
     RDKit          3D

 46 48  0  0  0  0  0  0  0  0999 V2000
    0.0689    1.3706   -0.8416 N   0  0  0  0  0  0  0  0  0  0  0  0
    1.2601    0.7455   -0.5591 C   0  0  0  0  0  0  0  0  0  0  0  0
    2.3463    1.5423   -0.8115 N   0  0  0  0  0  0  0  0  0  0  0  0
    3.7132    1.0273   -0.6973 C   0  0  0  0  0  0  0  0  0  0  0  0
    4.0809    0.6754    0.7549 C   0  0  0  0  0  0  0  0  0  0  0  0
    5.5047    0.7703    1.0496 N   0  0  0  0  0  0  0  0  0  0  0  0
    6.4302    0.0008    0.3829 C   0  0  0  0  0  0  0  0  0  0  0  0
    7.8266    0.0961    0.9366 C   0  0  0  0  0  0  0  0  0  0  0  0
    6.1590   -0.7053   -0.5819 O   0  0  0  0  0  0  0  0  0  0  0  0
    1.3444   -0.4687   -0.0842 N   0  0  0  0  0  0  0  0  0  0  0  0
    0.1177   -1.0396    0.0729 C   0  0  0  0  0  0  0  0  0  0  0  0
   -1.1298   -0.4880   -0.1749 C   0  0  0  0  0  0  0  0  0  0  0  0
   -2.0330   -1.5158    0.1485 C   0  0  0  0  0  0  0  0  0  0  0  0
   -1.4223   -2.6322    0.5663 N   0  0  0  0  0  0  0  0  0  0  0  0
   -0.1090   -2.3130    0.5129 N   0  0  0  0  0  0  0  0  0  0  0  0
    0.8744   -3.2965    0.8909 C   0  0  0  0  0  0  0  0  0  0  0  0
   -1.2026    0.8753   -0.6619 C   0  0  0  0  0  0  0  0  0  0  0  0
   -2.2519    1.5991   -0.9094 N   0  0  0  0  0  0  0  0  0  0  0  0
   -3.5510    1.1188   -0.6957 C   0  0  0  0  0  0  0  0  0  0  0  0
   -4.2375    0.5427   -1.7704 C   0  0  0  0  0  0  0  0  0  0  0  0
   -5.5442    0.0714   -1.6165 C   0  0  0  0  0  0  0  0  0  0  0  0
   -6.1930    0.1738   -0.3813 C   0  0  0  0  0  0  0  0  0  0  0  0
   -7.6066   -0.3033   -0.2230 C   0  0  0  0  0  0  0  0  0  0  0  0
   -5.5277    0.7862    0.6882 C   0  0  0  0  0  0  0  0  0  0  0  0
   -4.2194    1.2577    0.5313 C   0  0  0  0  0  0  0  0  0  0  0  0
   -3.3824    2.0805    2.0254 Br  0  0  0  0  0  0  0  0  0  0  0  0
    0.0938    2.3539   -1.0554 H   0  0  0  0  0  0  0  0  0  0  0  0
    2.2398    2.1199   -1.6375 H   0  0  0  0  0  0  0  0  0  0  0  0
    4.3882    1.8111   -1.0613 H   0  0  0  0  0  0  0  0  0  0  0  0
    3.8441    0.1638   -1.3589 H   0  0  0  0  0  0  0  0  0  0  0  0
    3.7633   -0.3443    0.9974 H   0  0  0  0  0  0  0  0  0  0  0  0
    3.5807    1.3574    1.4517 H   0  0  0  0  0  0  0  0  0  0  0  0
    5.7593    1.1339    1.9588 H   0  0  0  0  0  0  0  0  0  0  0  0
    7.9293    0.9339    1.6319 H   0  0  0  0  0  0  0  0  0  0  0  0
    8.5283    0.2490    0.1119 H   0  0  0  0  0  0  0  0  0  0  0  0
    8.0680   -0.8328    1.4597 H   0  0  0  0  0  0  0  0  0  0  0  0
   -3.1128   -1.5221    0.1015 H   0  0  0  0  0  0  0  0  0  0  0  0
    1.8693   -2.8462    0.9099 H   0  0  0  0  0  0  0  0  0  0  0  0
    0.8455   -4.1074    0.1589 H   0  0  0  0  0  0  0  0  0  0  0  0
    0.6231   -3.6717    1.8864 H   0  0  0  0  0  0  0  0  0  0  0  0
   -3.7476    0.4608   -2.7375 H   0  0  0  0  0  0  0  0  0  0  0  0
   -6.0514   -0.3738   -2.4700 H   0  0  0  0  0  0  0  0  0  0  0  0
   -8.3035    0.5072   -0.4573 H   0  0  0  0  0  0  0  0  0  0  0  0
   -7.8103   -1.1490   -0.8883 H   0  0  0  0  0  0  0  0  0  0  0  0
   -7.7907   -0.6446    0.8011 H   0  0  0  0  0  0  0  0  0  0  0  0
   -6.0327    0.8972    1.6453 H   0  0  0  0  0  0  0  0  0  0  0  0
  1  2  1  0
  2  3  1  0
  3  4  1  0
  4  5  1  0
  5  6  1  0
  6  7  1  0
  7  8  1  0
  7  9  2  0
  2 10  2  0
 10 11  1  0
 11 12  2  0
 12 13  1  0
 13 14  2  0
 14 15  1  0
 15 16  1  0
 12 17  1  0
 17 18  2  3
 18 19  1  0
 19 20  2  0
 20 21  1  0
 21 22  2  0
 22 23  1  0
 22 24  1  0
 24 25  2  0
 25 26  1  0
 17  1  1  0
 25 19  1  0
 15 11  1  0
  1 27  1  0
  3 28  1  0
  4 29  1  0
  4 30  1  0
  5 31  1  0
  5 32  1  0
  6 33  1  0
  8 34  1  0
  8 35  1  0
  8 36  1  0
 13 37  1  0
 16 38  1  0
 16 39  1  0
 16 40  1  0
 20 41  1  0
 21 42  1  0
 23 43  1  0
 23 44  1  0
 23 45  1  0
 24 46  1  0
M  END
>  <ScrubInfo>  (3) 
{"isomerGroup": 0, "isomerId": 2, "confId": 0, "nr_conformers:": 1, "nr_isomers:": 9}

$$$$
_i3
     RDKit          3D

 46 48  0  0  0  0  0  0  0  0999 V2000
    1.1740   -1.6360   -0.8100 N   0  0  0  0  0  0  0  0  0  0  0  0
    1.2880   -0.6831    0.1905 C   0  0  0  0  0  0  0  0  0  0  0  0
    2.0715   -0.7377    1.2088 N   0  0  0  0  0  0  0  0  0  0  0  0
    2.9490   -1.8968    1.3758 C   0  0  0  0  0  0  0  0  0  0  0  0
    3.7646   -1.7152    2.6581 C   0  0  0  0  0  0  0  0  0  0  0  0
    4.4652   -0.4452    2.6510 N   0  0  0  0  0  0  0  0  0  0  0  0
    5.4749   -0.1844    3.5439 C   0  0  0  0  0  0  0  0  0  0  0  0
    5.9486    1.2440    3.5362 C   0  0  0  0  0  0  0  0  0  0  0  0
    5.9612   -1.0284    4.2900 O   0  0  0  0  0  0  0  0  0  0  0  0
    0.5244    0.4753    0.1718 N   0  0  0  0  0  0  0  0  0  0  0  0
   -0.3378    0.6660   -0.7854 C   0  0  0  0  0  0  0  0  0  0  0  0
   -1.1096    1.7914   -0.8895 N   0  0  0  0  0  0  0  0  0  0  0  0
   -2.5259    1.8318   -0.7375 C   0  0  0  0  0  0  0  0  0  0  0  0
   -3.3001    0.6801   -0.5376 C   0  0  0  0  0  0  0  0  0  0  0  0
   -4.6944    0.7539   -0.4355 C   0  0  0  0  0  0  0  0  0  0  0  0
   -5.3529    1.9830   -0.5256 C   0  0  0  0  0  0  0  0  0  0  0  0
   -6.8494    2.0532   -0.4502 C   0  0  0  0  0  0  0  0  0  0  0  0
   -4.5978    3.1389   -0.7435 C   0  0  0  0  0  0  0  0  0  0  0  0
   -3.2040    3.0629   -0.8452 C   0  0  0  0  0  0  0  0  0  0  0  0
   -2.2513    4.6857   -1.1307 Br  0  0  0  0  0  0  0  0  0  0  0  0
   -0.4595   -0.2841   -1.8655 C   0  0  0  0  0  0  0  0  0  0  0  0
   -1.1723   -0.4031   -3.0677 C   0  0  0  0  0  0  0  0  0  0  0  0
   -0.8851   -1.5424   -3.7173 N   0  0  0  0  0  0  0  0  0  0  0  0
    0.0391   -2.1436   -2.9283 N   0  0  0  0  0  0  0  0  0  0  0  0
    0.5939   -3.4080   -3.3398 C   0  0  0  0  0  0  0  0  0  0  0  0
    0.3145   -1.4096   -1.8184 C   0  0  0  0  0  0  0  0  0  0  0  0
    1.7753   -2.4440   -0.7576 H   0  0  0  0  0  0  0  0  0  0  0  0
    2.3674   -2.8225    1.4505 H   0  0  0  0  0  0  0  0  0  0  0  0
    3.6355   -1.9734    0.5239 H   0  0  0  0  0  0  0  0  0  0  0  0
    3.1071   -1.7154    3.5349 H   0  0  0  0  0  0  0  0  0  0  0  0
    4.4862   -2.5309    2.7744 H   0  0  0  0  0  0  0  0  0  0  0  0
    3.9167    0.3315    2.2947 H   0  0  0  0  0  0  0  0  0  0  0  0
    5.5544    1.7953    2.6778 H   0  0  0  0  0  0  0  0  0  0  0  0
    7.0405    1.2581    3.4797 H   0  0  0  0  0  0  0  0  0  0  0  0
    5.6193    1.7349    4.4556 H   0  0  0  0  0  0  0  0  0  0  0  0
   -0.7251    2.5376   -0.3114 H   0  0  0  0  0  0  0  0  0  0  0  0
   -2.8398   -0.2997   -0.4392 H   0  0  0  0  0  0  0  0  0  0  0  0
   -5.2619   -0.1625   -0.2819 H   0  0  0  0  0  0  0  0  0  0  0  0
   -7.2463    1.2581    0.1897 H   0  0  0  0  0  0  0  0  0  0  0  0
   -7.1743    3.0071   -0.0214 H   0  0  0  0  0  0  0  0  0  0  0  0
   -7.2796    1.9499   -1.4511 H   0  0  0  0  0  0  0  0  0  0  0  0
   -5.0983    4.1005   -0.8350 H   0  0  0  0  0  0  0  0  0  0  0  0
   -1.8891    0.2824   -3.5018 H   0  0  0  0  0  0  0  0  0  0  0  0
    1.1437   -3.2547   -4.2717 H   0  0  0  0  0  0  0  0  0  0  0  0
    1.2672   -3.7879   -2.5687 H   0  0  0  0  0  0  0  0  0  0  0  0
   -0.2276   -4.1129   -3.4914 H   0  0  0  0  0  0  0  0  0  0  0  0
  1  2  1  0
  2  3  2  3
  3  4  1  0
  4  5  1  0
  5  6  1  0
  6  7  1  0
  7  8  1  0
  7  9  2  0
  2 10  1  0
 10 11  2  0
 11 12  1  0
 12 13  1  0
 13 14  2  0
 14 15  1  0
 15 16  2  0
 16 17  1  0
 16 18  1  0
 18 19  2  0
 19 20  1  0
 11 21  1  0
 21 22  1  0
 22 23  2  0
 23 24  1  0
 24 25  1  0
 24 26  1  0
 26  1  1  0
 19 13  1  0
 26 21  2  0
  1 27  1  0
  4 28  1  0
  4 29  1  0
  5 30  1  0
  5 31  1  0
  6 32  1  0
  8 33  1  0
  8 34  1  0
  8 35  1  0
 12 36  1  0
 14 37  1  0
 15 38  1  0
 17 39  1  0
 17 40  1  0
 17 41  1  0
 18 42  1  0
 22 43  1  0
 25 44  1  0
 25 45  1  0
 25 46  1  0
M  END
>  <ScrubInfo>  (4) 
{"isomerGroup": 0, "isomerId": 3, "confId": 0, "nr_conformers:": 1, "nr_isomers:": 9}

$$$$
_i4
     RDKit          3D

 46 48  0  0  0  0  0  0  0  0999 V2000
   -2.6686   -3.0067    0.0483 N   0  0  0  0  0  0  0  0  0  0  0  0
   -2.6041   -1.6203   -0.0486 C   0  0  0  0  0  0  0  0  0  0  0  0
   -1.3833   -1.1220    0.2010 C   0  0  0  0  0  0  0  0  0  0  0  0
   -0.6982    0.1638    0.2302 C   0  0  0  0  0  0  0  0  0  0  0  0
   -1.1486    1.3633    0.0670 N   0  0  0  0  0  0  0  0  0  0  0  0
   -2.5113    1.5930   -0.1664 C   0  0  0  0  0  0  0  0  0  0  0  0
   -2.9426    1.7437   -1.4891 C   0  0  0  0  0  0  0  0  0  0  0  0
   -4.2858    1.9934   -1.7831 C   0  0  0  0  0  0  0  0  0  0  0  0
   -5.2267    2.1030   -0.7540 C   0  0  0  0  0  0  0  0  0  0  0  0
   -6.6616    2.4114   -1.0653 C   0  0  0  0  0  0  0  0  0  0  0  0
   -4.7974    1.9914    0.5745 C   0  0  0  0  0  0  0  0  0  0  0  0
   -3.4511    1.7412    0.8659 C   0  0  0  0  0  0  0  0  0  0  0  0
   -2.9497    1.5976    2.6927 Br  0  0  0  0  0  0  0  0  0  0  0  0
    0.6476    0.0679    0.4616 N   0  0  0  0  0  0  0  0  0  0  0  0
    1.2550   -1.0523    0.7030 C   0  0  0  0  0  0  0  0  0  0  0  0
    2.6003   -1.0823    0.9346 N   0  0  0  0  0  0  0  0  0  0  0  0
    3.4882   -0.0378    0.4565 C   0  0  0  0  0  0  0  0  0  0  0  0
    4.8239   -0.0928    1.2096 C   0  0  0  0  0  0  0  0  0  0  0  0
    5.7472    0.9519    0.8047 N   0  0  0  0  0  0  0  0  0  0  0  0
    6.4486    0.8648   -0.3748 C   0  0  0  0  0  0  0  0  0  0  0  0
    7.2999    2.0673   -0.6803 C   0  0  0  0  0  0  0  0  0  0  0  0
    6.3819   -0.0991   -1.1302 O   0  0  0  0  0  0  0  0  0  0  0  0
    0.6578   -2.2823    0.7540 N   0  0  0  0  0  0  0  0  0  0  0  0
   -0.6087   -2.3336    0.5293 C   0  0  0  0  0  0  0  0  0  0  0  0
   -1.4453   -3.4509    0.5289 N   0  0  0  0  0  0  0  0  0  0  0  0
   -0.9549   -4.7518    0.1167 C   0  0  0  0  0  0  0  0  0  0  0  0
   -3.4950   -3.3366    0.5528 H   0  0  0  0  0  0  0  0  0  0  0  0
   -3.5067   -1.0858   -0.3048 H   0  0  0  0  0  0  0  0  0  0  0  0
   -2.2181    1.6729   -2.2972 H   0  0  0  0  0  0  0  0  0  0  0  0
   -4.5876    2.1112   -2.8219 H   0  0  0  0  0  0  0  0  0  0  0  0
   -6.9493    1.9932   -2.0356 H   0  0  0  0  0  0  0  0  0  0  0  0
   -6.8154    3.4946   -1.0870 H   0  0  0  0  0  0  0  0  0  0  0  0
   -7.3265    1.9736   -0.3133 H   0  0  0  0  0  0  0  0  0  0  0  0
   -5.5142    2.1077    1.3845 H   0  0  0  0  0  0  0  0  0  0  0  0
    2.9642   -2.0246    0.8552 H   0  0  0  0  0  0  0  0  0  0  0  0
    3.6471   -0.1592   -0.6208 H   0  0  0  0  0  0  0  0  0  0  0  0
    3.0448    0.9533    0.6103 H   0  0  0  0  0  0  0  0  0  0  0  0
    5.3050   -1.0654    1.0514 H   0  0  0  0  0  0  0  0  0  0  0  0
    4.6591    0.0237    2.2865 H   0  0  0  0  0  0  0  0  0  0  0  0
    5.7181    1.8335    1.3011 H   0  0  0  0  0  0  0  0  0  0  0  0
    7.4217    2.7085    0.1970 H   0  0  0  0  0  0  0  0  0  0  0  0
    8.2909    1.7321   -0.9988 H   0  0  0  0  0  0  0  0  0  0  0  0
    6.8298    2.6442   -1.4809 H   0  0  0  0  0  0  0  0  0  0  0  0
   -1.7254   -5.5147    0.2681 H   0  0  0  0  0  0  0  0  0  0  0  0
   -0.6754   -4.7449   -0.9421 H   0  0  0  0  0  0  0  0  0  0  0  0
   -0.0799   -5.0392    0.7084 H   0  0  0  0  0  0  0  0  0  0  0  0
  1  2  1  0
  2  3  2  0
  3  4  1  0
  4  5  2  3
  5  6  1  0
  6  7  2  0
  7  8  1  0
  8  9  2  0
  9 10  1  0
  9 11  1  0
 11 12  2  0
 12 13  1  0
  4 14  1  0
 14 15  2  0
 15 16  1  0
 16 17  1  0
 17 18  1  0
 18 19  1  0
 19 20  1  0
 20 21  1  0
 20 22  2  0
 15 23  1  0
 23 24  2  0
 24 25  1  0
 25 26  1  0
 25  1  1  0
 24  3  1  0
 12  6  1  0
  1 27  1  0
  2 28  1  0
  7 29  1  0
  8 30  1  0
 10 31  1  0
 10 32  1  0
 10 33  1  0
 11 34  1  0
 16 35  1  0
 17 36  1  0
 17 37  1  0
 18 38  1  0
 18 39  1  0
 19 40  1  0
 21 41  1  0
 21 42  1  0
 21 43  1  0
 26 44  1  0
 26 45  1  0
 26 46  1  0
M  END
>  <ScrubInfo>  (5) 
{"isomerGroup": 0, "isomerId": 4, "confId": 0, "nr_conformers:": 1, "nr_isomers:": 9}

$$$$
_i5
     RDKit          3D

 46 48  0  0  0  0  0  0  0  0999 V2000
    0.4296   -2.3457    0.0770 N   0  0  0  0  0  0  0  0  0  0  0  0
    1.1459   -1.1810    0.2289 C   0  0  0  0  0  0  0  0  0  0  0  0
    2.4839   -1.4266    0.3918 N   0  0  0  0  0  0  0  0  0  0  0  0
    3.4376   -0.3175    0.3897 C   0  0  0  0  0  0  0  0  0  0  0  0
    4.7519   -0.7489    1.0541 C   0  0  0  0  0  0  0  0  0  0  0  0
    5.7762    0.2775    1.0000 N   0  0  0  0  0  0  0  0  0  0  0  0
    6.5033    0.4897   -0.1484 C   0  0  0  0  0  0  0  0  0  0  0  0
    7.4602    1.6483   -0.0735 C   0  0  0  0  0  0  0  0  0  0  0  0
    6.3792   -0.1946   -1.1589 O   0  0  0  0  0  0  0  0  0  0  0  0
    0.6329    0.0146    0.2382 N   0  0  0  0  0  0  0  0  0  0  0  0
   -0.7323    0.1938    0.0585 C   0  0  0  0  0  0  0  0  0  0  0  0
   -1.1394    1.4225    0.0093 N   0  0  0  0  0  0  0  0  0  0  0  0
   -2.4812    1.7631   -0.1948 C   0  0  0  0  0  0  0  0  0  0  0  0
   -3.2717    2.0541    0.9228 C   0  0  0  0  0  0  0  0  0  0  0  0
   -4.6111    2.4256    0.7780 C   0  0  0  0  0  0  0  0  0  0  0  0
   -5.1856    2.5202   -0.4938 C   0  0  0  0  0  0  0  0  0  0  0  0
   -6.6134    2.9521   -0.6534 C   0  0  0  0  0  0  0  0  0  0  0  0
   -4.3903    2.2716   -1.6197 C   0  0  0  0  0  0  0  0  0  0  0  0
   -3.0487    1.9002   -1.4718 C   0  0  0  0  0  0  0  0  0  0  0  0
   -2.0356    1.5811   -3.0469 Br  0  0  0  0  0  0  0  0  0  0  0  0
   -1.5365   -1.0126   -0.0437 C   0  0  0  0  0  0  0  0  0  0  0  0
   -2.8974   -1.3548   -0.1427 C   0  0  0  0  0  0  0  0  0  0  0  0
   -3.1006   -2.6816   -0.1856 N   0  0  0  0  0  0  0  0  0  0  0  0
   -1.8534   -3.1988   -0.1211 N   0  0  0  0  0  0  0  0  0  0  0  0
   -1.6859   -4.6292   -0.1557 C   0  0  0  0  0  0  0  0  0  0  0  0
   -0.9054   -2.2309   -0.0295 C   0  0  0  0  0  0  0  0  0  0  0  0
    0.8992   -3.2146    0.2898 H   0  0  0  0  0  0  0  0  0  0  0  0
    2.8182   -2.1943   -0.1805 H   0  0  0  0  0  0  0  0  0  0  0  0
    3.6114    0.0059   -0.6429 H   0  0  0  0  0  0  0  0  0  0  0  0
    3.0401    0.5434    0.9407 H   0  0  0  0  0  0  0  0  0  0  0  0
    5.1391   -1.6545    0.5720 H   0  0  0  0  0  0  0  0  0  0  0  0
    4.5832   -0.9845    2.1107 H   0  0  0  0  0  0  0  0  0  0  0  0
    5.8003    0.9719    1.7364 H   0  0  0  0  0  0  0  0  0  0  0  0
    7.6005    1.9895    0.9559 H   0  0  0  0  0  0  0  0  0  0  0  0
    7.0686    2.4747   -0.6723 H   0  0  0  0  0  0  0  0  0  0  0  0
    8.4318    1.3353   -0.4654 H   0  0  0  0  0  0  0  0  0  0  0  0
   -2.8338    1.9940    1.9164 H   0  0  0  0  0  0  0  0  0  0  0  0
   -5.1991    2.6461    1.6666 H   0  0  0  0  0  0  0  0  0  0  0  0
   -7.0595    2.5022   -1.5466 H   0  0  0  0  0  0  0  0  0  0  0  0
   -7.2156    2.6352    0.2046 H   0  0  0  0  0  0  0  0  0  0  0  0
   -6.6673    4.0416   -0.7406 H   0  0  0  0  0  0  0  0  0  0  0  0
   -4.8177    2.3722   -2.6150 H   0  0  0  0  0  0  0  0  0  0  0  0
   -3.7663   -0.7125   -0.1778 H   0  0  0  0  0  0  0  0  0  0  0  0
   -0.6311   -4.8769   -0.2915 H   0  0  0  0  0  0  0  0  0  0  0  0
   -2.2653   -5.0282   -0.9924 H   0  0  0  0  0  0  0  0  0  0  0  0
   -2.0488   -5.0387    0.7902 H   0  0  0  0  0  0  0  0  0  0  0  0
  1  2  1  0
  2  3  1  0
  3  4  1  0
  4  5  1  0
  5  6  1  0
  6  7  1  0
  7  8  1  0
  7  9  2  0
  2 10  2  0
 10 11  1  0
 11 12  2  3
 12 13  1  0
 13 14  2  0
 14 15  1  0
 15 16  2  0
 16 17  1  0
 16 18  1  0
 18 19  2  0
 19 20  1  0
 11 21  1  0
 21 22  1  0
 22 23  2  0
 23 24  1  0
 24 25  1  0
 24 26  1  0
 26  1  1  0
 19 13  1  0
 26 21  2  0
  1 27  1  0
  3 28  1  0
  4 29  1  0
  4 30  1  0
  5 31  1  0
  5 32  1  0
  6 33  1  0
  8 34  1  0
  8 35  1  0
  8 36  1  0
 14 37  1  0
 15 38  1  0
 17 39  1  0
 17 40  1  0
 17 41  1  0
 18 42  1  0
 22 43  1  0
 25 44  1  0
 25 45  1  0
 25 46  1  0
M  END
>  <ScrubInfo>  (6) 
{"isomerGroup": 0, "isomerId": 5, "confId": 0, "nr_conformers:": 1, "nr_isomers:": 9}

$$$$
_i6
     RDKit          3D

 46 48  0  0  0  0  0  0  0  0999 V2000
   -0.9356   -3.3902   -2.0315 N   0  0  0  0  0  0  0  0  0  0  0  0
   -1.3889   -2.0825   -1.9030 C   0  0  0  0  0  0  0  0  0  0  0  0
   -0.4119   -1.2206   -1.5902 C   0  0  0  0  0  0  0  0  0  0  0  0
   -0.2385    0.2136   -1.3687 C   0  0  0  0  0  0  0  0  0  0  0  0
   -1.2710    1.1213   -1.3917 N   0  0  0  0  0  0  0  0  0  0  0  0
   -2.4708    1.0543   -0.6409 C   0  0  0  0  0  0  0  0  0  0  0  0
   -2.6539    0.1393    0.4053 C   0  0  0  0  0  0  0  0  0  0  0  0
   -3.8586    0.0830    1.1159 C   0  0  0  0  0  0  0  0  0  0  0  0
   -4.9176    0.9352    0.7925 C   0  0  0  0  0  0  0  0  0  0  0  0
   -6.1942    0.8977    1.5795 C   0  0  0  0  0  0  0  0  0  0  0  0
   -4.7435    1.8690   -0.2332 C   0  0  0  0  0  0  0  0  0  0  0  0
   -3.5372    1.9244   -0.9408 C   0  0  0  0  0  0  0  0  0  0  0  0
   -3.3854    3.2221   -2.3245 Br  0  0  0  0  0  0  0  0  0  0  0  0
    0.9735    0.6671   -1.1962 N   0  0  0  0  0  0  0  0  0  0  0  0
    2.0262   -0.2244   -1.1815 C   0  0  0  0  0  0  0  0  0  0  0  0
    3.2258    0.2141   -1.0311 N   0  0  0  0  0  0  0  0  0  0  0  0
    3.4371    1.6609   -0.8890 C   0  0  0  0  0  0  0  0  0  0  0  0
    3.2769    2.0770    0.5746 C   0  0  0  0  0  0  0  0  0  0  0  0
    4.1048    1.2572    1.4402 N   0  0  0  0  0  0  0  0  0  0  0  0
    4.2263    1.5300    2.7793 C   0  0  0  0  0  0  0  0  0  0  0  0
    4.9853    0.4854    3.5521 C   0  0  0  0  0  0  0  0  0  0  0  0
    3.7586    2.5278    3.3188 O   0  0  0  0  0  0  0  0  0  0  0  0
    1.9522   -1.5919   -1.2906 N   0  0  0  0  0  0  0  0  0  0  0  0
    0.7802   -2.0871   -1.4851 C   0  0  0  0  0  0  0  0  0  0  0  0
    0.4012   -3.4206   -1.6461 N   0  0  0  0  0  0  0  0  0  0  0  0
    1.2953   -4.3740   -2.2770 C   0  0  0  0  0  0  0  0  0  0  0  0
   -1.5487   -4.0841   -1.5977 H   0  0  0  0  0  0  0  0  0  0  0  0
   -2.4372   -1.8690   -2.0575 H   0  0  0  0  0  0  0  0  0  0  0  0
   -0.9401    2.0837   -1.4246 H   0  0  0  0  0  0  0  0  0  0  0  0
   -1.8525   -0.5261    0.7161 H   0  0  0  0  0  0  0  0  0  0  0  0
   -3.9581   -0.6289    1.9336 H   0  0  0  0  0  0  0  0  0  0  0  0
   -6.3927   -0.1121    1.9540 H   0  0  0  0  0  0  0  0  0  0  0  0
   -6.1302    1.5841    2.4293 H   0  0  0  0  0  0  0  0  0  0  0  0
   -7.0464    1.1852    0.9547 H   0  0  0  0  0  0  0  0  0  0  0  0
   -5.5505    2.5559   -0.4797 H   0  0  0  0  0  0  0  0  0  0  0  0
    4.4638    1.8715   -1.2117 H   0  0  0  0  0  0  0  0  0  0  0  0
    2.7881    2.2553   -1.5424 H   0  0  0  0  0  0  0  0  0  0  0  0
    3.5541    3.1280    0.7099 H   0  0  0  0  0  0  0  0  0  0  0  0
    2.2402    1.9587    0.9081 H   0  0  0  0  0  0  0  0  0  0  0  0
    4.2579    0.3087    1.1122 H   0  0  0  0  0  0  0  0  0  0  0  0
    5.5111   -0.2056    2.8871 H   0  0  0  0  0  0  0  0  0  0  0  0
    4.2848   -0.0806    4.1716 H   0  0  0  0  0  0  0  0  0  0  0  0
    5.7261    0.9786    4.1875 H   0  0  0  0  0  0  0  0  0  0  0  0
    2.2584   -4.4010   -1.7573 H   0  0  0  0  0  0  0  0  0  0  0  0
    1.4691   -4.1099   -3.3253 H   0  0  0  0  0  0  0  0  0  0  0  0
    0.8664   -5.3806   -2.2380 H   0  0  0  0  0  0  0  0  0  0  0  0
  1  2  1  0
  2  3  2  0
  3  4  1  0
  4  5  1  0
  5  6  1  0
  6  7  2  0
  7  8  1  0
  8  9  2  0
  9 10  1  0
  9 11  1  0
 11 12  2  0
 12 13  1  0
  4 14  2  0
 14 15  1  0
 15 16  2  3
 16 17  1  0
 17 18  1  0
 18 19  1  0
 19 20  1  0
 20 21  1  0
 20 22  2  0
 15 23  1  0
 23 24  2  0
 24 25  1  0
 25 26  1  0
 25  1  1  0
 24  3  1  0
 12  6  1  0
  1 27  1  0
  2 28  1  0
  5 29  1  0
  7 30  1  0
  8 31  1  0
 10 32  1  0
 10 33  1  0
 10 34  1  0
 11 35  1  0
 17 36  1  0
 17 37  1  0
 18 38  1  0
 18 39  1  0
 19 40  1  0
 21 41  1  0
 21 42  1  0
 21 43  1  0
 26 44  1  0
 26 45  1  0
 26 46  1  0
M  END
>  <ScrubInfo>  (7) 
{"isomerGroup": 0, "isomerId": 6, "confId": 0, "nr_conformers:": 1, "nr_isomers:": 9}

$$$$
_i7
     RDKit          3D

 46 48  0  0  0  0  0  0  0  0999 V2000
   -2.6380   -2.9345    0.2901 N   0  0  0  0  0  0  0  0  0  0  0  0
   -2.3173   -1.6090    0.0178 C   0  0  0  0  0  0  0  0  0  0  0  0
   -0.9998   -1.3598    0.0352 C   0  0  0  0  0  0  0  0  0  0  0  0
   -0.0513   -0.2520   -0.1856 C   0  0  0  0  0  0  0  0  0  0  0  0
   -0.3090    0.9979   -0.4382 N   0  0  0  0  0  0  0  0  0  0  0  0
   -1.6265    1.4710   -0.5126 C   0  0  0  0  0  0  0  0  0  0  0  0
   -2.2330    1.5590   -1.7704 C   0  0  0  0  0  0  0  0  0  0  0  0
   -3.5363    2.0446   -1.9067 C   0  0  0  0  0  0  0  0  0  0  0  0
   -4.2586    2.4585   -0.7825 C   0  0  0  0  0  0  0  0  0  0  0  0
   -5.6430    3.0170   -0.9315 C   0  0  0  0  0  0  0  0  0  0  0  0
   -3.6451    2.4098    0.4757 C   0  0  0  0  0  0  0  0  0  0  0  0
   -2.3394    1.9229    0.6091 C   0  0  0  0  0  0  0  0  0  0  0  0
   -1.5769    1.8853    2.3489 Br  0  0  0  0  0  0  0  0  0  0  0  0
    1.2600   -0.6532   -0.1005 N   0  0  0  0  0  0  0  0  0  0  0  0
    1.7224   -1.9184    0.1834 C   0  0  0  0  0  0  0  0  0  0  0  0
    2.9455   -2.3167    0.2417 N   0  0  0  0  0  0  0  0  0  0  0  0
    4.0237   -1.3812   -0.0537 C   0  0  0  0  0  0  0  0  0  0  0  0
    4.3806   -0.5608    1.1925 C   0  0  0  0  0  0  0  0  0  0  0  0
    4.9797    0.7218    0.8726 N   0  0  0  0  0  0  0  0  0  0  0  0
    4.2260    1.7056    0.2744 C   0  0  0  0  0  0  0  0  0  0  0  0
    4.9172    3.0341    0.1377 C   0  0  0  0  0  0  0  0  0  0  0  0
    3.0797    1.5130   -0.1228 O   0  0  0  0  0  0  0  0  0  0  0  0
    0.8423   -2.9453    0.4607 N   0  0  0  0  0  0  0  0  0  0  0  0
   -0.4266   -2.6966    0.4051 C   0  0  0  0  0  0  0  0  0  0  0  0
   -1.4712   -3.5909    0.6534 N   0  0  0  0  0  0  0  0  0  0  0  0
   -1.3281   -5.0024    0.3520 C   0  0  0  0  0  0  0  0  0  0  0  0
   -3.4257   -3.0341    0.9342 H   0  0  0  0  0  0  0  0  0  0  0  0
   -3.1269   -0.9216   -0.1756 H   0  0  0  0  0  0  0  0  0  0  0  0
   -1.6773    1.2506   -2.6528 H   0  0  0  0  0  0  0  0  0  0  0  0
   -3.9780    2.1047   -2.8994 H   0  0  0  0  0  0  0  0  0  0  0  0
   -6.2446    2.8110   -0.0400 H   0  0  0  0  0  0  0  0  0  0  0  0
   -5.5954    4.0994   -1.0848 H   0  0  0  0  0  0  0  0  0  0  0  0
   -6.1586    2.5609   -1.7832 H   0  0  0  0  0  0  0  0  0  0  0  0
   -4.1849    2.7594    1.3531 H   0  0  0  0  0  0  0  0  0  0  0  0
    1.9316    0.1057   -0.2133 H   0  0  0  0  0  0  0  0  0  0  0  0
    4.9063   -1.9564   -0.3593 H   0  0  0  0  0  0  0  0  0  0  0  0
    3.7822   -0.7634   -0.9256 H   0  0  0  0  0  0  0  0  0  0  0  0
    5.0923   -1.1144    1.8145 H   0  0  0  0  0  0  0  0  0  0  0  0
    3.4953   -0.3612    1.8075 H   0  0  0  0  0  0  0  0  0  0  0  0
    5.8340    0.9797    1.3496 H   0  0  0  0  0  0  0  0  0  0  0  0
    5.9722    2.9719    0.4182 H   0  0  0  0  0  0  0  0  0  0  0  0
    4.8568    3.3620   -0.9037 H   0  0  0  0  0  0  0  0  0  0  0  0
    4.4217    3.7626    0.7846 H   0  0  0  0  0  0  0  0  0  0  0  0
   -2.2099   -5.5554    0.6918 H   0  0  0  0  0  0  0  0  0  0  0  0
   -1.2127   -5.1605   -0.7254 H   0  0  0  0  0  0  0  0  0  0  0  0
   -0.4554   -5.4204    0.8638 H   0  0  0  0  0  0  0  0  0  0  0  0
  1  2  1  0
  2  3  2  0
  3  4  1  0
  4  5  2  3
  5  6  1  0
  6  7  2  0
  7  8  1  0
  8  9  2  0
  9 10  1  0
  9 11  1  0
 11 12  2  0
 12 13  1  0
  4 14  1  0
 14 15  1  0
 15 16  2  3
 16 17  1  0
 17 18  1  0
 18 19  1  0
 19 20  1  0
 20 21  1  0
 20 22  2  0
 15 23  1  0
 23 24  2  0
 24 25  1  0
 25 26  1  0
 25  1  1  0
 24  3  1  0
 12  6  1  0
  1 27  1  0
  2 28  1  0
  7 29  1  0
  8 30  1  0
 10 31  1  0
 10 32  1  0
 10 33  1  0
 11 34  1  0
 14 35  1  0
 17 36  1  0
 17 37  1  0
 18 38  1  0
 18 39  1  0
 19 40  1  0
 21 41  1  0
 21 42  1  0
 21 43  1  0
 26 44  1  0
 26 45  1  0
 26 46  1  0
M  END
>  <ScrubInfo>  (8) 
{"isomerGroup": 0, "isomerId": 7, "confId": 0, "nr_conformers:": 1, "nr_isomers:": 9}

$$$$
_i8
     RDKit          3D

 46 48  0  0  0  0  0  0  0  0999 V2000
    0.5061   -2.7139    0.7148 N   0  0  0  0  0  0  0  0  0  0  0  0
    1.3859   -1.6615    0.8669 C   0  0  0  0  0  0  0  0  0  0  0  0
    2.6094   -1.9394    1.1682 N   0  0  0  0  0  0  0  0  0  0  0  0
    3.5707   -0.8563    1.3610 C   0  0  0  0  0  0  0  0  0  0  0  0
    4.2224   -0.4649    0.0343 C   0  0  0  0  0  0  0  0  0  0  0  0
    5.2427    0.5524    0.2194 N   0  0  0  0  0  0  0  0  0  0  0  0
    5.5473    1.4400   -0.7891 C   0  0  0  0  0  0  0  0  0  0  0  0
    6.7383    2.3133   -0.4977 C   0  0  0  0  0  0  0  0  0  0  0  0
    4.9217    1.5233   -1.8399 O   0  0  0  0  0  0  0  0  0  0  0  0
    0.7990   -0.4270    0.6637 N   0  0  0  0  0  0  0  0  0  0  0  0
   -0.5004   -0.0800    0.3453 C   0  0  0  0  0  0  0  0  0  0  0  0
   -0.8319    1.1678    0.1976 N   0  0  0  0  0  0  0  0  0  0  0  0
   -2.1299    1.5600   -0.1556 C   0  0  0  0  0  0  0  0  0  0  0  0
   -3.0246    1.9077    0.8626 C   0  0  0  0  0  0  0  0  0  0  0  0
   -4.3220    2.3322    0.5629 C   0  0  0  0  0  0  0  0  0  0  0  0
   -4.7478    2.4233   -0.7665 C   0  0  0  0  0  0  0  0  0  0  0  0
   -6.1291    2.9108   -1.0911 C   0  0  0  0  0  0  0  0  0  0  0  0
   -3.8455    2.1161   -1.7927 C   0  0  0  0  0  0  0  0  0  0  0  0
   -2.5469    1.6915   -1.4898 C   0  0  0  0  0  0  0  0  0  0  0  0
   -1.3796    1.2923   -2.9346 Br  0  0  0  0  0  0  0  0  0  0  0  0
   -1.3460   -1.2551    0.2232 C   0  0  0  0  0  0  0  0  0  0  0  0
   -2.6982   -1.5374   -0.0463 C   0  0  0  0  0  0  0  0  0  0  0  0
   -2.9709   -2.8510   -0.0306 N   0  0  0  0  0  0  0  0  0  0  0  0
   -1.7770   -3.4241    0.2370 N   0  0  0  0  0  0  0  0  0  0  0  0
   -1.6888   -4.8597    0.3256 C   0  0  0  0  0  0  0  0  0  0  0  0
   -0.7913   -2.5025    0.4100 C   0  0  0  0  0  0  0  0  0  0  0  0
    0.9197   -3.6275    0.8590 H   0  0  0  0  0  0  0  0  0  0  0  0
    4.3440   -1.2144    2.0517 H   0  0  0  0  0  0  0  0  0  0  0  0
    3.1255    0.0153    1.8556 H   0  0  0  0  0  0  0  0  0  0  0  0
    4.7091   -1.3326   -0.4254 H   0  0  0  0  0  0  0  0  0  0  0  0
    3.4660   -0.1051   -0.6718 H   0  0  0  0  0  0  0  0  0  0  0  0
    5.9639    0.3645    0.9042 H   0  0  0  0  0  0  0  0  0  0  0  0
    6.9958    2.3012    0.5651 H   0  0  0  0  0  0  0  0  0  0  0  0
    6.5041    3.3436   -0.7798 H   0  0  0  0  0  0  0  0  0  0  0  0
    7.5939    1.9571   -1.0773 H   0  0  0  0  0  0  0  0  0  0  0  0
    1.3980    0.3822    0.7155 H   0  0  0  0  0  0  0  0  0  0  0  0
   -2.7050    1.8487    1.9001 H   0  0  0  0  0  0  0  0  0  0  0  0
   -4.9952    2.5954    1.3763 H   0  0  0  0  0  0  0  0  0  0  0  0
   -6.8355    2.6384   -0.2999 H   0  0  0  0  0  0  0  0  0  0  0  0
   -6.4934    2.4602   -2.0203 H   0  0  0  0  0  0  0  0  0  0  0  0
   -6.1251    3.9994   -1.2026 H   0  0  0  0  0  0  0  0  0  0  0  0
   -4.1560    2.2116   -2.8310 H   0  0  0  0  0  0  0  0  0  0  0  0
   -3.5142   -0.8584   -0.2509 H   0  0  0  0  0  0  0  0  0  0  0  0
   -1.9765   -5.1562    1.3370 H   0  0  0  0  0  0  0  0  0  0  0  0
   -2.3664   -5.3032   -0.4088 H   0  0  0  0  0  0  0  0  0  0  0  0
   -0.6660   -5.1779    0.1118 H   0  0  0  0  0  0  0  0  0  0  0  0
  1  2  1  0
  2  3  2  3
  3  4  1  0
  4  5  1  0
  5  6  1  0
  6  7  1  0
  7  8  1  0
  7  9  2  0
  2 10  1  0
 10 11  1  0
 11 12  2  3
 12 13  1  0
 13 14  2  0
 14 15  1  0
 15 16  2  0
 16 17  1  0
 16 18  1  0
 18 19  2  0
 19 20  1  0
 11 21  1  0
 21 22  1  0
 22 23  2  0
 23 24  1  0
 24 25  1  0
 24 26  1  0
 26  1  1  0
 19 13  1  0
 26 21  2  0
  1 27  1  0
  4 28  1  0
  4 29  1  0
  5 30  1  0
  5 31  1  0
  6 32  1  0
  8 33  1  0
  8 34  1  0
  8 35  1  0
 10 36  1  0
 14 37  1  0
 15 38  1  0
 17 39  1  0
 17 40  1  0
 17 41  1  0
 18 42  1  0
 22 43  1  0
 25 44  1  0
 25 45  1  0
 25 46  1  0
M  END
>  <ScrubInfo>  (9) 
{"isomerGroup": 0, "isomerId": 8, "confId": 0, "nr_conformers:": 1, "nr_isomers:": 9}

$$$$
