REMARK SMILES COc1ccc(Nc2nc(NCCCO)c3ccccc3n2)cc1
REMARK SMILES IDX 11 1 10 3 8 4 9 5 22 6 21 7 16 8 20 9 17 10 19 11 18 12 7 13
REMARK SMILES IDX 6 15 3 16 4 17 24 18 5 19 23 20 2 21 1 22 12 23 13 24 14 25
REMARK SMILES IDX 15 26
REMARK H PARENT 11 2 7 14 15 27
ROOT
ATOM      1  N   UNL     1       2.763   0.340  -0.147  1.00  0.00    -0.369 N 
ATOM      2  H   UNL     1       3.297   1.081  -0.595  1.00  0.00     0.162 HD
ENDROOT
BRANCH   1   3
ATOM      3  C   UNL     1       1.848  -0.172  -1.100  1.00  0.00     0.139 A 
ATOM      4  C   UNL     1      -0.315  -0.694  -1.697  1.00  0.00     0.229 A 
ATOM      5  N   UNL     1       0.543  -0.221  -0.787  1.00  0.00    -0.195 NA
ATOM      6  N   UNL     1       0.058  -1.125  -2.910  1.00  0.00    -0.213 NA
ATOM      7  C   UNL     1       1.357  -1.100  -3.217  1.00  0.00     0.078 A 
ATOM      8  C   UNL     1       2.333  -0.631  -2.335  1.00  0.00     0.043 A 
ATOM      9  C   UNL     1       1.757  -1.561  -4.466  1.00  0.00     0.029 A 
ATOM     10  C   UNL     1       3.698  -0.656  -2.723  1.00  0.00     0.014 A 
ATOM     11  C   UNL     1       3.099  -1.577  -4.856  1.00  0.00     0.002 A 
ATOM     12  C   UNL     1       4.075  -1.125  -3.979  1.00  0.00     0.001 A 
BRANCH   4  13
ATOM     13  N   UNL     1      -1.685  -0.760  -1.458  1.00  0.00    -0.324 N 
ATOM     14  H   UNL     1      -2.135  -1.146  -2.275  1.00  0.00     0.170 HD
BRANCH  13  15
ATOM     15  C   UNL     1      -2.498  -0.484  -0.355  1.00  0.00     0.041 A 
ATOM     16  C   UNL     1      -4.268   0.082   1.790  1.00  0.00     0.119 A 
ATOM     17  C   UNL     1      -4.767  -0.336   0.561  1.00  0.00     0.048 A 
ATOM     18  C   UNL     1      -2.889   0.220   1.944  1.00  0.00     0.048 A 
ATOM     19  C   UNL     1      -3.889  -0.612  -0.497  1.00  0.00     0.030 A 
ATOM     20  C   UNL     1      -2.017  -0.058   0.884  1.00  0.00     0.030 A 
BRANCH  16  21
ATOM     21  O   UNL     1      -5.003   0.385   2.901  1.00  0.00    -0.497 OA
ATOM     22  C   UNL     1      -6.415   0.258   2.790  1.00  0.00     0.278 C 
ENDBRANCH  16  21
ENDBRANCH  13  15
ENDBRANCH   4  13
ENDBRANCH   1   3
BRANCH   1  23
ATOM     23  C   UNL     1       2.152   0.797   1.100  1.00  0.00     0.117 C 
BRANCH  23  24
ATOM     24  C   UNL     1       3.248   1.274   2.048  1.00  0.00     0.049 C 
BRANCH  24  25
ATOM     25  C   UNL     1       2.667   1.729   3.377  1.00  0.00     0.158 C 
BRANCH  25  26
ATOM     26  O   UNL     1       3.709   2.194   4.225  1.00  0.00    -0.396 OA
ATOM     27  H   UNL     1       4.302   1.443   4.400  1.00  0.00     0.210 HD
ENDBRANCH  25  26
ENDBRANCH  24  25
ENDBRANCH  23  24
ENDBRANCH   1  23
TORSDOF 8
