_i0
     RDKit          3D

 44 46  0  0  0  0  0  0  0  0999 V2000
   -6.4153    0.2575    2.7902 C   0  0  0  0  0  0  0  0  0  0  0  0
   -5.0035    0.3846    2.9012 O   0  0  0  0  0  0  0  0  0  0  0  0
   -4.2675    0.0822    1.7902 C   0  0  0  0  0  0  0  0  0  0  0  0
   -4.7670   -0.3357    0.5607 C   0  0  0  0  0  0  0  0  0  0  0  0
   -3.8889   -0.6124   -0.4968 C   0  0  0  0  0  0  0  0  0  0  0  0
   -2.4978   -0.4845   -0.3549 C   0  0  0  0  0  0  0  0  0  0  0  0
   -1.6851   -0.7604   -1.4579 N   0  0  0  0  0  0  0  0  0  0  0  0
   -0.3146   -0.6943   -1.6971 C   0  0  0  0  0  0  0  0  0  0  0  0
    0.5426   -0.2208   -0.7873 N   0  0  0  0  0  0  0  0  0  0  0  0
    1.8483   -0.1719   -1.1001 C   0  0  0  0  0  0  0  0  0  0  0  0
    2.7634    0.3402   -0.1468 N   0  0  0  0  0  0  0  0  0  0  0  0
    2.1520    0.7975    1.0997 C   0  0  0  0  0  0  0  0  0  0  0  0
    3.2482    1.2735    2.0482 C   0  0  0  0  0  0  0  0  0  0  0  0
    2.6665    1.7294    3.3774 C   0  0  0  0  0  0  0  0  0  0  0  0
    3.7090    2.1938    4.2254 O   0  0  0  0  0  0  0  0  0  0  0  0
    2.3331   -0.6313   -2.3346 C   0  0  0  0  0  0  0  0  0  0  0  0
    3.6980   -0.6558   -2.7234 C   0  0  0  0  0  0  0  0  0  0  0  0
    4.0752   -1.1250   -3.9794 C   0  0  0  0  0  0  0  0  0  0  0  0
    3.0992   -1.5766   -4.8563 C   0  0  0  0  0  0  0  0  0  0  0  0
    1.7570   -1.5613   -4.4663 C   0  0  0  0  0  0  0  0  0  0  0  0
    1.3573   -1.1000   -3.2169 C   0  0  0  0  0  0  0  0  0  0  0  0
    0.0576   -1.1250   -2.9097 N   0  0  0  0  0  0  0  0  0  0  0  0
   -2.0166   -0.0577    0.8837 C   0  0  0  0  0  0  0  0  0  0  0  0
   -2.8890    0.2196    1.9439 C   0  0  0  0  0  0  0  0  0  0  0  0
   -6.7030   -0.7772    2.5763 H   0  0  0  0  0  0  0  0  0  0  0  0
   -6.8154    0.9436    2.0363 H   0  0  0  0  0  0  0  0  0  0  0  0
   -6.8526    0.5317    3.7551 H   0  0  0  0  0  0  0  0  0  0  0  0
   -5.8303   -0.4563    0.3846 H   0  0  0  0  0  0  0  0  0  0  0  0
   -4.3114   -0.9319   -1.4469 H   0  0  0  0  0  0  0  0  0  0  0  0
   -2.1354   -1.1461   -2.2746 H   0  0  0  0  0  0  0  0  0  0  0  0
    3.2971    1.0815   -0.5951 H   0  0  0  0  0  0  0  0  0  0  0  0
    1.6028   -0.0235    1.5771 H   0  0  0  0  0  0  0  0  0  0  0  0
    1.4541    1.6214    0.9046 H   0  0  0  0  0  0  0  0  0  0  0  0
    3.9781    0.4721    2.2208 H   0  0  0  0  0  0  0  0  0  0  0  0
    3.8175    2.0949    1.5947 H   0  0  0  0  0  0  0  0  0  0  0  0
    2.1417    0.9144    3.8863 H   0  0  0  0  0  0  0  0  0  0  0  0
    1.9607    2.5532    3.2319 H   0  0  0  0  0  0  0  0  0  0  0  0
    4.3023    1.4427    4.3999 H   0  0  0  0  0  0  0  0  0  0  0  0
    4.4702   -0.3213   -2.0345 H   0  0  0  0  0  0  0  0  0  0  0  0
    5.1233   -1.1424   -4.2665 H   0  0  0  0  0  0  0  0  0  0  0  0
    3.3746   -1.9479   -5.8401 H   0  0  0  0  0  0  0  0  0  0  0  0
    1.0002   -1.9249   -5.1584 H   0  0  0  0  0  0  0  0  0  0  0  0
   -0.9532    0.0631    1.0575 H   0  0  0  0  0  0  0  0  0  0  0  0
   -2.4834    0.5462    2.8981 H   0  0  0  0  0  0  0  0  0  0  0  0
  1  2  1  0
  2  3  1  0
  3  4  2  0
  4  5  1  0
  5  6  2  0
  6  7  1  0
  7  8  1  0
  8  9  2  0
  9 10  1  0
 10 11  1  0
 11 12  1  0
 12 13  1  0
 13 14  1  0
 14 15  1  0
 10 16  2  0
 16 17  1  0
 17 18  2  0
 18 19  1  0
 19 20  2  0
 20 21  1  0
 21 22  2  0
  6 23  1  0
 23 24  2  0
 24  3  1  0
 22  8  1  0
 21 16  1  0
  1 25  1  0
  1 26  1  0
  1 27  1  0
  4 28  1  0
  5 29  1  0
  7 30  1  0
 11 31  1  0
 12 32  1  0
 12 33  1  0
 13 34  1  0
 13 35  1  0
 14 36  1  0
 14 37  1  0
 15 38  1  0
 17 39  1  0
 18 40  1  0
 19 41  1  0
 20 42  1  0
 23 43  1  0
 24 44  1  0
M  END
>  <ScrubInfo>  (1) 
{"isomerGroup": 0, "isomerId": 0, "confId": 0, "nr_conformers:": 1, "nr_isomers:": 6}

$$$$
_i1
     RDKit          3D

 44 46  0  0  0  0  0  0  0  0999 V2000
   -0.7080    1.0411    0.3993 N   0  0  0  0  0  0  0  0  0  0  0  0
   -1.8876    0.3376    0.4068 C   0  0  0  0  0  0  0  0  0  0  0  0
   -3.0939    1.0131    0.5453 N   0  0  0  0  0  0  0  0  0  0  0  0
   -3.3175    2.4152    0.2310 C   0  0  0  0  0  0  0  0  0  0  0  0
   -4.7973    2.7712    0.3932 C   0  0  0  0  0  0  0  0  0  0  0  0
   -5.6875    2.1138   -0.6576 C   0  0  0  0  0  0  0  0  0  0  0  0
   -5.6690    0.6965   -0.5110 O   0  0  0  0  0  0  0  0  0  0  0  0
   -1.8106   -1.0123    0.2849 C   0  0  0  0  0  0  0  0  0  0  0  0
   -2.9167   -1.9546    0.2970 C   0  0  0  0  0  0  0  0  0  0  0  0
   -2.7091   -3.2693    0.1376 C   0  0  0  0  0  0  0  0  0  0  0  0
   -1.3833   -3.8036   -0.0525 C   0  0  0  0  0  0  0  0  0  0  0  0
   -0.2944   -3.0240   -0.0592 C   0  0  0  0  0  0  0  0  0  0  0  0
   -0.4044   -1.5483    0.1245 C   0  0  0  0  0  0  0  0  0  0  0  0
    0.6900   -0.8516    0.1304 N   0  0  0  0  0  0  0  0  0  0  0  0
    0.5379    0.4976    0.3127 C   0  0  0  0  0  0  0  0  0  0  0  0
    1.5717    1.2845    0.4099 N   0  0  0  0  0  0  0  0  0  0  0  0
    2.8576    0.7328    0.3283 C   0  0  0  0  0  0  0  0  0  0  0  0
    3.5294    0.3306    1.4831 C   0  0  0  0  0  0  0  0  0  0  0  0
    4.8260   -0.1844    1.4022 C   0  0  0  0  0  0  0  0  0  0  0  0
    5.4719   -0.2933    0.1681 C   0  0  0  0  0  0  0  0  0  0  0  0
    6.7360   -0.8129    0.2278 O   0  0  0  0  0  0  0  0  0  0  0  0
    7.4299   -0.9520   -1.0052 C   0  0  0  0  0  0  0  0  0  0  0  0
    4.8090    0.1229   -0.9871 C   0  0  0  0  0  0  0  0  0  0  0  0
    3.5101    0.6385   -0.9029 C   0  0  0  0  0  0  0  0  0  0  0  0
   -0.7449    2.0185    0.6307 H   0  0  0  0  0  0  0  0  0  0  0  0
   -3.9104    0.4478    0.2922 H   0  0  0  0  0  0  0  0  0  0  0  0
   -2.9894    2.6314   -0.7923 H   0  0  0  0  0  0  0  0  0  0  0  0
   -2.7303    3.0396    0.9138 H   0  0  0  0  0  0  0  0  0  0  0  0
   -4.9086    3.8588    0.3162 H   0  0  0  0  0  0  0  0  0  0  0  0
   -5.1331    2.4712    1.3936 H   0  0  0  0  0  0  0  0  0  0  0  0
   -6.7202    2.4558   -0.5358 H   0  0  0  0  0  0  0  0  0  0  0  0
   -5.3517    2.3653   -1.6687 H   0  0  0  0  0  0  0  0  0  0  0  0
   -6.2984    0.3414   -1.1649 H   0  0  0  0  0  0  0  0  0  0  0  0
   -3.9264   -1.5916    0.4510 H   0  0  0  0  0  0  0  0  0  0  0  0
   -3.5407   -3.9677    0.1555 H   0  0  0  0  0  0  0  0  0  0  0  0
   -1.2866   -4.8772   -0.1844 H   0  0  0  0  0  0  0  0  0  0  0  0
    0.7036   -3.4244   -0.1930 H   0  0  0  0  0  0  0  0  0  0  0  0
    3.0372    0.4147    2.4471 H   0  0  0  0  0  0  0  0  0  0  0  0
    5.3348   -0.5013    2.3084 H   0  0  0  0  0  0  0  0  0  0  0  0
    7.5908    0.0216   -1.4799 H   0  0  0  0  0  0  0  0  0  0  0  0
    6.9064   -1.6393   -1.6782 H   0  0  0  0  0  0  0  0  0  0  0  0
    8.4124   -1.3827   -0.7890 H   0  0  0  0  0  0  0  0  0  0  0  0
    5.2686    0.0636   -1.9671 H   0  0  0  0  0  0  0  0  0  0  0  0
    2.9969    0.9654   -1.8025 H   0  0  0  0  0  0  0  0  0  0  0  0
  1  2  1  0
  2  3  1  0
  3  4  1  0
  4  5  1  0
  5  6  1  0
  6  7  1  0
  2  8  2  0
  8  9  1  0
  9 10  2  0
 10 11  1  0
 11 12  2  0
 12 13  1  0
 13 14  2  0
 14 15  1  0
 15 16  2  3
 16 17  1  0
 17 18  2  0
 18 19  1  0
 19 20  2  0
 20 21  1  0
 21 22  1  0
 20 23  1  0
 23 24  2  0
 15  1  1  0
 24 17  1  0
 13  8  1  0
  1 25  1  0
  3 26  1  0
  4 27  1  0
  4 28  1  0
  5 29  1  0
  5 30  1  0
  6 31  1  0
  6 32  1  0
  7 33  1  0
  9 34  1  0
 10 35  1  0
 11 36  1  0
 12 37  1  0
 18 38  1  0
 19 39  1  0
 22 40  1  0
 22 41  1  0
 22 42  1  0
 23 43  1  0
 24 44  1  0
M  END
>  <ScrubInfo>  (2) 
{"isomerGroup": 0, "isomerId": 1, "confId": 0, "nr_conformers:": 1, "nr_isomers:": 6}

$$$$
_i2
     RDKit          3D

 44 46  0  0  0  0  0  0  0  0999 V2000
   -0.8951    0.5835    0.1712 N   0  0  0  0  0  0  0  0  0  0  0  0
    0.3397    0.0003    0.1182 C   0  0  0  0  0  0  0  0  0  0  0  0
    1.3526    0.9148    0.2718 N   0  0  0  0  0  0  0  0  0  0  0  0
    2.7430    0.7036    0.1750 C   0  0  0  0  0  0  0  0  0  0  0  0
    3.6106    1.6781    0.6964 C   0  0  0  0  0  0  0  0  0  0  0  0
    5.0038    1.5471    0.6050 C   0  0  0  0  0  0  0  0  0  0  0  0
    5.5608    0.4389   -0.0261 C   0  0  0  0  0  0  0  0  0  0  0  0
    6.8941    0.1861   -0.1866 O   0  0  0  0  0  0  0  0  0  0  0  0
    7.7996    1.1326    0.3660 C   0  0  0  0  0  0  0  0  0  0  0  0
    4.7112   -0.5247   -0.5668 C   0  0  0  0  0  0  0  0  0  0  0  0
    3.3202   -0.3906   -0.4735 C   0  0  0  0  0  0  0  0  0  0  0  0
    0.4733   -1.2798   -0.0571 N   0  0  0  0  0  0  0  0  0  0  0  0
   -0.7007   -2.0621   -0.1455 C   0  0  0  0  0  0  0  0  0  0  0  0
   -0.5224   -3.4483   -0.2300 C   0  0  0  0  0  0  0  0  0  0  0  0
   -1.6165   -4.3099   -0.2682 C   0  0  0  0  0  0  0  0  0  0  0  0
   -2.9047   -3.7895   -0.2079 C   0  0  0  0  0  0  0  0  0  0  0  0
   -3.1041   -2.4072   -0.1265 C   0  0  0  0  0  0  0  0  0  0  0  0
   -2.0131   -1.5316   -0.1200 C   0  0  0  0  0  0  0  0  0  0  0  0
   -2.0984   -0.0373   -0.0448 C   0  0  0  0  0  0  0  0  0  0  0  0
   -3.1084    0.7593   -0.1791 N   0  0  0  0  0  0  0  0  0  0  0  0
   -4.4592    0.3612   -0.5153 C   0  0  0  0  0  0  0  0  0  0  0  0
   -5.2625    1.6041   -0.9062 C   0  0  0  0  0  0  0  0  0  0  0  0
   -5.3372    2.6664    0.1849 C   0  0  0  0  0  0  0  0  0  0  0  0
   -5.8958    2.1394    1.3810 O   0  0  0  0  0  0  0  0  0  0  0  0
   -0.9495    1.5852    0.0731 H   0  0  0  0  0  0  0  0  0  0  0  0
    1.1165    1.7237    0.8281 H   0  0  0  0  0  0  0  0  0  0  0  0
    3.2116    2.5605    1.1909 H   0  0  0  0  0  0  0  0  0  0  0  0
    5.6191    2.3302    1.0344 H   0  0  0  0  0  0  0  0  0  0  0  0
    8.8159    0.7805    0.1643 H   0  0  0  0  0  0  0  0  0  0  0  0
    7.6817    1.2049    1.4523 H   0  0  0  0  0  0  0  0  0  0  0  0
    7.6859    2.1119   -0.1105 H   0  0  0  0  0  0  0  0  0  0  0  0
    5.1301   -1.3914   -1.0724 H   0  0  0  0  0  0  0  0  0  0  0  0
    2.7050   -1.1603   -0.9306 H   0  0  0  0  0  0  0  0  0  0  0  0
    0.4867   -3.8530   -0.2537 H   0  0  0  0  0  0  0  0  0  0  0  0
   -1.4603   -5.3838   -0.3293 H   0  0  0  0  0  0  0  0  0  0  0  0
   -3.7605   -4.4610   -0.2168 H   0  0  0  0  0  0  0  0  0  0  0  0
   -4.1250   -2.0623   -0.0497 H   0  0  0  0  0  0  0  0  0  0  0  0
   -4.9429   -0.1237    0.3384 H   0  0  0  0  0  0  0  0  0  0  0  0
   -4.4676   -0.3180   -1.3745 H   0  0  0  0  0  0  0  0  0  0  0  0
   -6.2801    1.2798   -1.1558 H   0  0  0  0  0  0  0  0  0  0  0  0
   -4.8315    2.0538   -1.8087 H   0  0  0  0  0  0  0  0  0  0  0  0
   -5.9795    3.4882   -0.1474 H   0  0  0  0  0  0  0  0  0  0  0  0
   -4.3529    3.0895    0.4109 H   0  0  0  0  0  0  0  0  0  0  0  0
   -5.1934    1.6110    1.8005 H   0  0  0  0  0  0  0  0  0  0  0  0
  1  2  1  0
  2  3  1  0
  3  4  1  0
  4  5  2  0
  5  6  1  0
  6  7  2  0
  7  8  1  0
  8  9  1  0
  7 10  1  0
 10 11  2  0
  2 12  2  0
 12 13  1  0
 13 14  2  0
 14 15  1  0
 15 16  2  0
 16 17  1  0
 17 18  2  0
 18 19  1  0
 19 20  2  3
 20 21  1  0
 21 22  1  0
 22 23  1  0
 23 24  1  0
 19  1  1  0
 11  4  1  0
 18 13  1  0
  1 25  1  0
  3 26  1  0
  5 27  1  0
  6 28  1  0
  9 29  1  0
  9 30  1  0
  9 31  1  0
 10 32  1  0
 11 33  1  0
 14 34  1  0
 15 35  1  0
 16 36  1  0
 17 37  1  0
 21 38  1  0
 21 39  1  0
 22 40  1  0
 22 41  1  0
 23 42  1  0
 23 43  1  0
 24 44  1  0
M  END
>  <ScrubInfo>  (3) 
{"isomerGroup": 0, "isomerId": 2, "confId": 0, "nr_conformers:": 1, "nr_isomers:": 6}

$$$$
_i3
     RDKit          3D

 44 46  0  0  0  0  0  0  0  0999 V2000
    0.4610   -1.0813   -0.1284 N   0  0  0  0  0  0  0  0  0  0  0  0
    0.0136    0.2124   -0.1934 C   0  0  0  0  0  0  0  0  0  0  0  0
    0.7622    1.2734   -0.1451 N   0  0  0  0  0  0  0  0  0  0  0  0
    2.1473    1.1361   -0.0158 C   0  0  0  0  0  0  0  0  0  0  0  0
    2.9618    1.1502   -1.1495 C   0  0  0  0  0  0  0  0  0  0  0  0
    4.3493    1.0072   -1.0341 C   0  0  0  0  0  0  0  0  0  0  0  0
    4.9337    0.8589    0.2243 C   0  0  0  0  0  0  0  0  0  0  0  0
    6.2686    0.7057    0.4781 O   0  0  0  0  0  0  0  0  0  0  0  0
    7.1473    0.7820   -0.6375 C   0  0  0  0  0  0  0  0  0  0  0  0
    4.1197    0.8610    1.3601 C   0  0  0  0  0  0  0  0  0  0  0  0
    2.7355    1.0070    1.2425 C   0  0  0  0  0  0  0  0  0  0  0  0
   -1.3226    0.4977   -0.3154 N   0  0  0  0  0  0  0  0  0  0  0  0
   -2.1908   -0.4632   -0.4654 C   0  0  0  0  0  0  0  0  0  0  0  0
   -3.5400   -0.1545   -0.5481 N   0  0  0  0  0  0  0  0  0  0  0  0
   -4.0358    1.1906   -0.2874 C   0  0  0  0  0  0  0  0  0  0  0  0
   -4.2147    1.4171    1.2089 C   0  0  0  0  0  0  0  0  0  0  0  0
   -4.6286    2.8503    1.5013 C   0  0  0  0  0  0  0  0  0  0  0  0
   -4.9058    2.9778    2.8901 O   0  0  0  0  0  0  0  0  0  0  0  0
   -1.7654   -1.8988   -0.5463 C   0  0  0  0  0  0  0  0  0  0  0  0
   -2.6500   -2.9518   -0.8048 C   0  0  0  0  0  0  0  0  0  0  0  0
   -2.1721   -4.2632   -0.8441 C   0  0  0  0  0  0  0  0  0  0  0  0
   -0.8188   -4.5209   -0.6291 C   0  0  0  0  0  0  0  0  0  0  0  0
    0.0651   -3.4670   -0.3897 C   0  0  0  0  0  0  0  0  0  0  0  0
   -0.4001   -2.1489   -0.3666 C   0  0  0  0  0  0  0  0  0  0  0  0
    1.4547   -1.2411   -0.1323 H   0  0  0  0  0  0  0  0  0  0  0  0
    2.5082    1.2785   -2.1292 H   0  0  0  0  0  0  0  0  0  0  0  0
    4.9394    1.0221   -1.9439 H   0  0  0  0  0  0  0  0  0  0  0  0
    6.9629   -0.0370   -1.3404 H   0  0  0  0  0  0  0  0  0  0  0  0
    8.1706    0.6763   -0.2646 H   0  0  0  0  0  0  0  0  0  0  0  0
    7.0728    1.7550   -1.1345 H   0  0  0  0  0  0  0  0  0  0  0  0
    4.5673    0.7590    2.3456 H   0  0  0  0  0  0  0  0  0  0  0  0
    2.1119    1.0238    2.1324 H   0  0  0  0  0  0  0  0  0  0  0  0
   -4.1876   -0.8775   -0.2617 H   0  0  0  0  0  0  0  0  0  0  0  0
   -5.0040    1.2988   -0.7899 H   0  0  0  0  0  0  0  0  0  0  0  0
   -3.3733    1.9450   -0.7275 H   0  0  0  0  0  0  0  0  0  0  0  0
   -3.2898    1.1914    1.7545 H   0  0  0  0  0  0  0  0  0  0  0  0
   -4.9648    0.7229    1.6090 H   0  0  0  0  0  0  0  0  0  0  0  0
   -3.8264    3.5471    1.2375 H   0  0  0  0  0  0  0  0  0  0  0  0
   -5.5322    3.1213    0.9461 H   0  0  0  0  0  0  0  0  0  0  0  0
   -5.0387    3.9246    3.0687 H   0  0  0  0  0  0  0  0  0  0  0  0
   -3.7034   -2.7759   -0.9913 H   0  0  0  0  0  0  0  0  0  0  0  0
   -2.8559   -5.0852   -1.0432 H   0  0  0  0  0  0  0  0  0  0  0  0
   -0.4499   -5.5436   -0.6538 H   0  0  0  0  0  0  0  0  0  0  0  0
    1.1179   -3.6835   -0.2277 H   0  0  0  0  0  0  0  0  0  0  0  0
  1  2  1  0
  2  3  2  3
  3  4  1  0
  4  5  2  0
  5  6  1  0
  6  7  2  0
  7  8  1  0
  8  9  1  0
  7 10  1  0
 10 11  2  0
  2 12  1  0
 12 13  2  0
 13 14  1  0
 14 15  1  0
 15 16  1  0
 16 17  1  0
 17 18  1  0
 13 19  1  0
 19 20  2  0
 20 21  1  0
 21 22  2  0
 22 23  1  0
 23 24  2  0
 24  1  1  0
 11  4  1  0
 24 19  1  0
  1 25  1  0
  5 26  1  0
  6 27  1  0
  9 28  1  0
  9 29  1  0
  9 30  1  0
 10 31  1  0
 11 32  1  0
 14 33  1  0
 15 34  1  0
 15 35  1  0
 16 36  1  0
 16 37  1  0
 17 38  1  0
 17 39  1  0
 18 40  1  0
 20 41  1  0
 21 42  1  0
 22 43  1  0
 23 44  1  0
M  END
>  <ScrubInfo>  (4) 
{"isomerGroup": 0, "isomerId": 3, "confId": 0, "nr_conformers:": 1, "nr_isomers:": 6}

$$$$
_i4
     RDKit          3D

 44 46  0  0  0  0  0  0  0  0999 V2000
    0.4727   -1.5848   -0.2236 N   0  0  0  0  0  0  0  0  0  0  0  0
    0.0721   -0.3402   -0.6194 C   0  0  0  0  0  0  0  0  0  0  0  0
    1.0607    0.4787   -1.0927 N   0  0  0  0  0  0  0  0  0  0  0  0
    2.3450    0.6869   -0.5457 C   0  0  0  0  0  0  0  0  0  0  0  0
    3.2996    1.3507   -1.3294 C   0  0  0  0  0  0  0  0  0  0  0  0
    4.6018    1.5698   -0.8614 C   0  0  0  0  0  0  0  0  0  0  0  0
    4.9715    1.1271    0.4062 C   0  0  0  0  0  0  0  0  0  0  0  0
    6.2012    1.2720    0.9847 O   0  0  0  0  0  0  0  0  0  0  0  0
    7.1879    1.9674    0.2329 C   0  0  0  0  0  0  0  0  0  0  0  0
    4.0278    0.4683    1.1947 C   0  0  0  0  0  0  0  0  0  0  0  0
    2.7280    0.2493    0.7252 C   0  0  0  0  0  0  0  0  0  0  0  0
   -1.1555    0.0857   -0.6395 N   0  0  0  0  0  0  0  0  0  0  0  0
   -2.1548   -0.7563   -0.1999 C   0  0  0  0  0  0  0  0  0  0  0  0
   -3.3759   -0.3429   -0.1146 N   0  0  0  0  0  0  0  0  0  0  0  0
   -3.6326    1.0481   -0.4968 C   0  0  0  0  0  0  0  0  0  0  0  0
   -5.1260    1.3155   -0.3116 C   0  0  0  0  0  0  0  0  0  0  0  0
   -5.5139    2.7247   -0.7369 C   0  0  0  0  0  0  0  0  0  0  0  0
   -4.8717    3.7039    0.0690 O   0  0  0  0  0  0  0  0  0  0  0  0
   -1.8305   -2.1612    0.1687 C   0  0  0  0  0  0  0  0  0  0  0  0
   -2.8181   -3.0726    0.5560 C   0  0  0  0  0  0  0  0  0  0  0  0
   -2.4560   -4.3760    0.8947 C   0  0  0  0  0  0  0  0  0  0  0  0
   -1.1147   -4.7599    0.8526 C   0  0  0  0  0  0  0  0  0  0  0  0
   -0.1311   -3.8443    0.4669 C   0  0  0  0  0  0  0  0  0  0  0  0
   -0.4870   -2.5434    0.1032 C   0  0  0  0  0  0  0  0  0  0  0  0
    1.3814   -1.9020   -0.5293 H   0  0  0  0  0  0  0  0  0  0  0  0
    0.6718    1.3483   -1.4479 H   0  0  0  0  0  0  0  0  0  0  0  0
    3.0375    1.6958   -2.3276 H   0  0  0  0  0  0  0  0  0  0  0  0
    5.2979    2.0854   -1.5143 H   0  0  0  0  0  0  0  0  0  0  0  0
    8.0998    2.0094    0.8364 H   0  0  0  0  0  0  0  0  0  0  0  0
    7.4259    1.4344   -0.6935 H   0  0  0  0  0  0  0  0  0  0  0  0
    6.8762    2.9971    0.0284 H   0  0  0  0  0  0  0  0  0  0  0  0
    4.3026    0.1284    2.1906 H   0  0  0  0  0  0  0  0  0  0  0  0
    2.0189   -0.2398    1.3882 H   0  0  0  0  0  0  0  0  0  0  0  0
   -3.3624    1.2146   -1.5466 H   0  0  0  0  0  0  0  0  0  0  0  0
   -3.0550    1.7335    0.1349 H   0  0  0  0  0  0  0  0  0  0  0  0
   -5.3855    1.1634    0.7435 H   0  0  0  0  0  0  0  0  0  0  0  0
   -5.7061    0.5898   -0.8942 H   0  0  0  0  0  0  0  0  0  0  0  0
   -6.5955    2.8649   -0.6426 H   0  0  0  0  0  0  0  0  0  0  0  0
   -5.2405    2.9087   -1.7806 H   0  0  0  0  0  0  0  0  0  0  0  0
   -5.0642    3.4882    0.9980 H   0  0  0  0  0  0  0  0  0  0  0  0
   -3.8609   -2.7677    0.5957 H   0  0  0  0  0  0  0  0  0  0  0  0
   -3.2187   -5.0892    1.1979 H   0  0  0  0  0  0  0  0  0  0  0  0
   -0.8335   -5.7738    1.1284 H   0  0  0  0  0  0  0  0  0  0  0  0
    0.9099   -4.1559    0.4572 H   0  0  0  0  0  0  0  0  0  0  0  0
  1  2  1  0
  2  3  1  0
  3  4  1  0
  4  5  2  0
  5  6  1  0
  6  7  2  0
  7  8  1  0
  8  9  1  0
  7 10  1  0
 10 11  2  0
  2 12  2  0
 12 13  1  0
 13 14  2  3
 14 15  1  0
 15 16  1  0
 16 17  1  0
 17 18  1  0
 13 19  1  0
 19 20  2  0
 20 21  1  0
 21 22  2  0
 22 23  1  0
 23 24  2  0
 24  1  1  0
 11  4  1  0
 24 19  1  0
  1 25  1  0
  3 26  1  0
  5 27  1  0
  6 28  1  0
  9 29  1  0
  9 30  1  0
  9 31  1  0
 10 32  1  0
 11 33  1  0
 15 34  1  0
 15 35  1  0
 16 36  1  0
 16 37  1  0
 17 38  1  0
 17 39  1  0
 18 40  1  0
 20 41  1  0
 21 42  1  0
 22 43  1  0
 23 44  1  0
M  END
>  <ScrubInfo>  (5) 
{"isomerGroup": 0, "isomerId": 4, "confId": 0, "nr_conformers:": 1, "nr_isomers:": 6}

$$$$
_i5
     RDKit          3D

 44 46  0  0  0  0  0  0  0  0999 V2000
    0.7341   -0.6682    0.0268 N   0  0  0  0  0  0  0  0  0  0  0  0
    0.6364    0.6608    0.3458 C   0  0  0  0  0  0  0  0  0  0  0  0
    1.6114    1.4861    0.5951 N   0  0  0  0  0  0  0  0  0  0  0  0
    2.9276    1.0128    0.5453 C   0  0  0  0  0  0  0  0  0  0  0  0
    3.6693    1.1205   -0.6324 C   0  0  0  0  0  0  0  0  0  0  0  0
    4.9843    0.6451   -0.6940 C   0  0  0  0  0  0  0  0  0  0  0  0
    5.5706    0.0650    0.4313 C   0  0  0  0  0  0  0  0  0  0  0  0
    6.8381   -0.4421    0.5069 O   0  0  0  0  0  0  0  0  0  0  0  0
    7.6576   -0.2990   -0.6466 C   0  0  0  0  0  0  0  0  0  0  0  0
    4.8327   -0.0292    1.6142 C   0  0  0  0  0  0  0  0  0  0  0  0
    3.5214    0.4485    1.6742 C   0  0  0  0  0  0  0  0  0  0  0  0
   -0.6480    1.1106    0.3924 N   0  0  0  0  0  0  0  0  0  0  0  0
   -1.8343    0.4549    0.1840 C   0  0  0  0  0  0  0  0  0  0  0  0
   -2.8895    1.1861    0.3294 N   0  0  0  0  0  0  0  0  0  0  0  0
   -4.2654    0.7705    0.1892 C   0  0  0  0  0  0  0  0  0  0  0  0
   -5.1541    1.9726    0.5036 C   0  0  0  0  0  0  0  0  0  0  0  0
   -6.6274    1.6362    0.3279 C   0  0  0  0  0  0  0  0  0  0  0  0
   -7.4325    2.7588    0.6641 O   0  0  0  0  0  0  0  0  0  0  0  0
   -1.6990   -1.0020   -0.1752 C   0  0  0  0  0  0  0  0  0  0  0  0
   -2.7565   -1.8732   -0.4547 C   0  0  0  0  0  0  0  0  0  0  0  0
   -2.5129   -3.2131   -0.7770 C   0  0  0  0  0  0  0  0  0  0  0  0
   -1.2112   -3.6987   -0.8265 C   0  0  0  0  0  0  0  0  0  0  0  0
   -0.1452   -2.8448   -0.5558 C   0  0  0  0  0  0  0  0  0  0  0  0
   -0.3724   -1.4982   -0.2307 C   0  0  0  0  0  0  0  0  0  0  0  0
    1.6550   -1.0792   -0.0200 H   0  0  0  0  0  0  0  0  0  0  0  0
    3.2180    1.5812   -1.5075 H   0  0  0  0  0  0  0  0  0  0  0  0
    5.5193    0.7484   -1.6319 H   0  0  0  0  0  0  0  0  0  0  0  0
    7.8012    0.7562   -0.9018 H   0  0  0  0  0  0  0  0  0  0  0  0
    7.2467   -0.8588   -1.4932 H   0  0  0  0  0  0  0  0  0  0  0  0
    8.6396   -0.7217   -0.4135 H   0  0  0  0  0  0  0  0  0  0  0  0
    5.2857   -0.4691    2.4992 H   0  0  0  0  0  0  0  0  0  0  0  0
    2.9615    0.3833    2.6031 H   0  0  0  0  0  0  0  0  0  0  0  0
   -0.7457    2.0863    0.6367 H   0  0  0  0  0  0  0  0  0  0  0  0
   -4.5050   -0.0313    0.8955 H   0  0  0  0  0  0  0  0  0  0  0  0
   -4.4670    0.4466   -0.8373 H   0  0  0  0  0  0  0  0  0  0  0  0
   -4.8903    2.8195   -0.1431 H   0  0  0  0  0  0  0  0  0  0  0  0
   -4.9742    2.3214    1.5286 H   0  0  0  0  0  0  0  0  0  0  0  0
   -6.8480    1.3523   -0.7061 H   0  0  0  0  0  0  0  0  0  0  0  0
   -6.9194    0.8070    0.9798 H   0  0  0  0  0  0  0  0  0  0  0  0
   -7.1176    3.5142    0.1384 H   0  0  0  0  0  0  0  0  0  0  0  0
   -3.7891   -1.5598   -0.4377 H   0  0  0  0  0  0  0  0  0  0  0  0
   -3.3472   -3.8780   -0.9902 H   0  0  0  0  0  0  0  0  0  0  0  0
   -1.0263   -4.7404   -1.0770 H   0  0  0  0  0  0  0  0  0  0  0  0
    0.8676   -3.2379   -0.6008 H   0  0  0  0  0  0  0  0  0  0  0  0
  1  2  1  0
  2  3  2  3
  3  4  1  0
  4  5  2  0
  5  6  1  0
  6  7  2  0
  7  8  1  0
  8  9  1  0
  7 10  1  0
 10 11  2  0
  2 12  1  0
 12 13  1  0
 13 14  2  3
 14 15  1  0
 15 16  1  0
 16 17  1  0
 17 18  1  0
 13 19  1  0
 19 20  2  0
 20 21  1  0
 21 22  2  0
 22 23  1  0
 23 24  2  0
 24  1  1  0
 11  4  1  0
 24 19  1  0
  1 25  1  0
  5 26  1  0
  6 27  1  0
  9 28  1  0
  9 29  1  0
  9 30  1  0
 10 31  1  0
 11 32  1  0
 12 33  1  0
 15 34  1  0
 15 35  1  0
 16 36  1  0
 16 37  1  0
 17 38  1  0
 17 39  1  0
 18 40  1  0
 20 41  1  0
 21 42  1  0
 22 43  1  0
 23 44  1  0
M  END
>  <ScrubInfo>  (6) 
{"isomerGroup": 0, "isomerId": 5, "confId": 0, "nr_conformers:": 1, "nr_isomers:": 6}

$$$$
