_i0
     RDKit          3D

 40 42  0  0  0  0  0  0  0  0999 V2000
   -5.1159    2.8394    0.5238 O   0  0  0  0  0  0  0  0  0  0  0  0
   -3.8294    2.8550   -0.0799 C   0  0  0  0  0  0  0  0  0  0  0  0
   -3.3909    1.4466   -0.4517 C   0  0  0  0  0  0  0  0  0  0  0  0
   -3.2385    0.5607    0.7867 C   0  0  0  0  0  0  0  0  0  0  0  0
   -2.7999   -0.7860    0.4126 N   0  0  0  0  0  0  0  0  0  0  0  0
   -1.4135   -0.9603    0.1892 C   0  0  0  0  0  0  0  0  0  0  0  0
   -0.5926    0.0956    0.3218 N   0  0  0  0  0  0  0  0  0  0  0  0
    0.7188   -0.0854    0.1174 C   0  0  0  0  0  0  0  0  0  0  0  0
    1.4943    1.0590    0.2871 N   0  0  0  0  0  0  0  0  0  0  0  0
    2.8591    1.3392    0.1697 C   0  0  0  0  0  0  0  0  0  0  0  0
    3.8224    0.3919   -0.2000 C   0  0  0  0  0  0  0  0  0  0  0  0
    5.1759    0.7343   -0.2961 C   0  0  0  0  0  0  0  0  0  0  0  0
    5.5768    2.0329   -0.0203 C   0  0  0  0  0  0  0  0  0  0  0  0
    6.8720    2.3610   -0.1120 F   0  0  0  0  0  0  0  0  0  0  0  0
    4.6501    2.9954    0.3499 C   0  0  0  0  0  0  0  0  0  0  0  0
    3.2995    2.6475    0.4441 C   0  0  0  0  0  0  0  0  0  0  0  0
    1.2581   -1.2617   -0.2139 N   0  0  0  0  0  0  0  0  0  0  0  0
    0.4457   -2.3096   -0.3666 C   0  0  0  0  0  0  0  0  0  0  0  0
    0.9976   -3.5342   -0.7257 C   0  0  0  0  0  0  0  0  0  0  0  0
    0.2113   -4.6741   -0.9151 C   0  0  0  0  0  0  0  0  0  0  0  0
   -1.1640   -4.5963   -0.7479 C   0  0  0  0  0  0  0  0  0  0  0  0
   -1.7385   -3.3803   -0.3857 C   0  0  0  0  0  0  0  0  0  0  0  0
   -0.9363   -2.2270   -0.1831 C   0  0  0  0  0  0  0  0  0  0  0  0
   -5.7523    2.5594   -0.1575 H   0  0  0  0  0  0  0  0  0  0  0  0
   -3.8745    3.4921   -0.9691 H   0  0  0  0  0  0  0  0  0  0  0  0
   -3.1263    3.3100    0.6249 H   0  0  0  0  0  0  0  0  0  0  0  0
   -4.1324    0.9941   -1.1218 H   0  0  0  0  0  0  0  0  0  0  0  0
   -2.4487    1.5044   -1.0074 H   0  0  0  0  0  0  0  0  0  0  0  0
   -4.2178    0.4598    1.2702 H   0  0  0  0  0  0  0  0  0  0  0  0
   -2.5768    1.0131    1.5356 H   0  0  0  0  0  0  0  0  0  0  0  0
   -3.0865   -1.4677    1.1117 H   0  0  0  0  0  0  0  0  0  0  0  0
    0.8872    1.8242    0.5404 H   0  0  0  0  0  0  0  0  0  0  0  0
    3.5420   -0.6329   -0.4229 H   0  0  0  0  0  0  0  0  0  0  0  0
    5.9125   -0.0084   -0.5843 H   0  0  0  0  0  0  0  0  0  0  0  0
    4.9795    4.0068    0.5634 H   0  0  0  0  0  0  0  0  0  0  0  0
    2.5865    3.4145    0.7374 H   0  0  0  0  0  0  0  0  0  0  0  0
    2.0743   -3.6030   -0.8665 H   0  0  0  0  0  0  0  0  0  0  0  0
    0.6777   -5.6140   -1.1989 H   0  0  0  0  0  0  0  0  0  0  0  0
   -1.7872   -5.4731   -0.9032 H   0  0  0  0  0  0  0  0  0  0  0  0
   -2.8190   -3.3228   -0.2749 H   0  0  0  0  0  0  0  0  0  0  0  0
  1  2  1  0
  2  3  1  0
  3  4  1  0
  4  5  1  0
  5  6  1  0
  6  7  2  0
  7  8  1  0
  8  9  1  0
  9 10  1  0
 10 11  2  0
 11 12  1  0
 12 13  2  0
 13 14  1  0
 13 15  1  0
 15 16  2  0
  8 17  2  0
 17 18  1  0
 18 19  2  0
 19 20  1  0
 20 21  2  0
 21 22  1  0
 22 23  2  0
 23  6  1  0
 16 10  1  0
 23 18  1  0
  1 24  1  0
  2 25  1  0
  2 26  1  0
  3 27  1  0
  3 28  1  0
  4 29  1  0
  4 30  1  0
  5 31  1  0
  9 32  1  0
 11 33  1  0
 12 34  1  0
 15 35  1  0
 16 36  1  0
 19 37  1  0
 20 38  1  0
 21 39  1  0
 22 40  1  0
M  END
>  <ScrubInfo>  (1) 
{"isomerGroup": 0, "isomerId": 0, "confId": 0, "nr_conformers:": 1, "nr_isomers:": 6}

$$$$
_i1
     RDKit          3D

 40 42  0  0  0  0  0  0  0  0999 V2000
    0.2452   -0.7181   -0.0082 N   0  0  0  0  0  0  0  0  0  0  0  0
    1.3513   -1.4335    0.3519 C   0  0  0  0  0  0  0  0  0  0  0  0
    2.4600   -1.2773   -0.4330 N   0  0  0  0  0  0  0  0  0  0  0  0
    3.0213   -0.0511   -0.8566 C   0  0  0  0  0  0  0  0  0  0  0  0
    3.9718   -0.0797   -1.8900 C   0  0  0  0  0  0  0  0  0  0  0  0
    4.5551    1.0994   -2.3598 C   0  0  0  0  0  0  0  0  0  0  0  0
    4.1933    2.3135   -1.7923 C   0  0  0  0  0  0  0  0  0  0  0  0
    4.7508    3.4452   -2.2408 F   0  0  0  0  0  0  0  0  0  0  0  0
    3.2631    2.3687   -0.7628 C   0  0  0  0  0  0  0  0  0  0  0  0
    2.6792    1.1881   -0.2947 C   0  0  0  0  0  0  0  0  0  0  0  0
    1.3625   -2.2765    1.3453 N   0  0  0  0  0  0  0  0  0  0  0  0
    0.1637   -2.3955    2.0908 C   0  0  0  0  0  0  0  0  0  0  0  0
    0.1514   -3.2694    3.1811 C   0  0  0  0  0  0  0  0  0  0  0  0
   -1.0014   -3.4294    3.9564 C   0  0  0  0  0  0  0  0  0  0  0  0
   -2.1598   -2.7149    3.6487 C   0  0  0  0  0  0  0  0  0  0  0  0
   -2.1705   -1.8377    2.5648 C   0  0  0  0  0  0  0  0  0  0  0  0
   -1.0141   -1.6810    1.7931 C   0  0  0  0  0  0  0  0  0  0  0  0
   -0.9731   -0.7576    0.6202 C   0  0  0  0  0  0  0  0  0  0  0  0
   -2.0401   -0.1038    0.3071 N   0  0  0  0  0  0  0  0  0  0  0  0
   -2.0028    0.8035   -0.8355 C   0  0  0  0  0  0  0  0  0  0  0  0
   -3.3629    1.4828   -0.9554 C   0  0  0  0  0  0  0  0  0  0  0  0
   -3.4023    2.4444   -2.1330 C   0  0  0  0  0  0  0  0  0  0  0  0
   -4.6849    3.0527   -2.1975 O   0  0  0  0  0  0  0  0  0  0  0  0
    0.3226   -0.1867   -0.8597 H   0  0  0  0  0  0  0  0  0  0  0  0
    3.1937   -1.9211   -0.1451 H   0  0  0  0  0  0  0  0  0  0  0  0
    4.2548   -1.0262   -2.3461 H   0  0  0  0  0  0  0  0  0  0  0  0
    5.2856    1.0766   -3.1622 H   0  0  0  0  0  0  0  0  0  0  0  0
    3.0045    3.3270   -0.3231 H   0  0  0  0  0  0  0  0  0  0  0  0
    1.9784    1.2541    0.5346 H   0  0  0  0  0  0  0  0  0  0  0  0
    1.0501   -3.8293    3.4264 H   0  0  0  0  0  0  0  0  0  0  0  0
   -0.9934   -4.1137    4.8012 H   0  0  0  0  0  0  0  0  0  0  0  0
   -3.0551   -2.8416    4.2525 H   0  0  0  0  0  0  0  0  0  0  0  0
   -3.0729   -1.2817    2.3235 H   0  0  0  0  0  0  0  0  0  0  0  0
   -1.7897    0.2472   -1.7560 H   0  0  0  0  0  0  0  0  0  0  0  0
   -1.2262    1.5651   -0.6958 H   0  0  0  0  0  0  0  0  0  0  0  0
   -4.1553    0.7315   -1.0665 H   0  0  0  0  0  0  0  0  0  0  0  0
   -3.6013    2.0229   -0.0302 H   0  0  0  0  0  0  0  0  0  0  0  0
   -3.2217    1.9155   -3.0744 H   0  0  0  0  0  0  0  0  0  0  0  0
   -2.6507    3.2321   -2.0187 H   0  0  0  0  0  0  0  0  0  0  0  0
   -4.6802    3.6557   -2.9601 H   0  0  0  0  0  0  0  0  0  0  0  0
  1  2  1  0
  2  3  1  0
  3  4  1  0
  4  5  2  0
  5  6  1  0
  6  7  2  0
  7  8  1  0
  7  9  1  0
  9 10  2  0
  2 11  2  0
 11 12  1  0
 12 13  2  0
 13 14  1  0
 14 15  2  0
 15 16  1  0
 16 17  2  0
 17 18  1  0
 18 19  2  3
 19 20  1  0
 20 21  1  0
 21 22  1  0
 22 23  1  0
 18  1  1  0
 10  4  1  0
 17 12  1  0
  1 24  1  0
  3 25  1  0
  5 26  1  0
  6 27  1  0
  9 28  1  0
 10 29  1  0
 13 30  1  0
 14 31  1  0
 15 32  1  0
 16 33  1  0
 20 34  1  0
 20 35  1  0
 21 36  1  0
 21 37  1  0
 22 38  1  0
 22 39  1  0
 23 40  1  0
M  END
>  <ScrubInfo>  (2) 
{"isomerGroup": 0, "isomerId": 1, "confId": 0, "nr_conformers:": 1, "nr_isomers:": 6}

$$$$
_i2
     RDKit          3D

 40 42  0  0  0  0  0  0  0  0999 V2000
   -0.2455    0.4490    0.3150 N   0  0  0  0  0  0  0  0  0  0  0  0
   -1.1690   -0.4073   -0.2335 C   0  0  0  0  0  0  0  0  0  0  0  0
   -2.5313   -0.1562   -0.0854 N   0  0  0  0  0  0  0  0  0  0  0  0
   -3.1138    1.1195    0.3161 C   0  0  0  0  0  0  0  0  0  0  0  0
   -4.6296    0.9729    0.4519 C   0  0  0  0  0  0  0  0  0  0  0  0
   -5.2923    2.2918    0.8225 C   0  0  0  0  0  0  0  0  0  0  0  0
   -4.8290    2.7499    2.0838 O   0  0  0  0  0  0  0  0  0  0  0  0
   -0.6931   -1.4875   -0.9059 C   0  0  0  0  0  0  0  0  0  0  0  0
   -1.4749   -2.5423   -1.5297 C   0  0  0  0  0  0  0  0  0  0  0  0
   -0.8821   -3.5459   -2.1919 C   0  0  0  0  0  0  0  0  0  0  0  0
    0.5524   -3.6230   -2.3138 C   0  0  0  0  0  0  0  0  0  0  0  0
    1.3651   -2.7172   -1.7550 C   0  0  0  0  0  0  0  0  0  0  0  0
    0.8170   -1.5667   -0.9811 C   0  0  0  0  0  0  0  0  0  0  0  0
    1.6581   -0.7370   -0.4461 N   0  0  0  0  0  0  0  0  0  0  0  0
    1.1074    0.3020    0.2563 C   0  0  0  0  0  0  0  0  0  0  0  0
    1.8595    1.1640    0.8793 N   0  0  0  0  0  0  0  0  0  0  0  0
    3.2518    1.0176    0.8243 C   0  0  0  0  0  0  0  0  0  0  0  0
    3.9229    0.2773    1.8043 C   0  0  0  0  0  0  0  0  0  0  0  0
    5.3133    0.1579    1.7702 C   0  0  0  0  0  0  0  0  0  0  0  0
    6.0280    0.7913    0.7599 C   0  0  0  0  0  0  0  0  0  0  0  0
    7.3625    0.6781    0.7258 F   0  0  0  0  0  0  0  0  0  0  0  0
    5.3804    1.5445   -0.2127 C   0  0  0  0  0  0  0  0  0  0  0  0
    3.9898    1.6617   -0.1754 C   0  0  0  0  0  0  0  0  0  0  0  0
   -0.5773    1.1984    0.8977 H   0  0  0  0  0  0  0  0  0  0  0  0
   -3.1002   -0.6637   -0.7555 H   0  0  0  0  0  0  0  0  0  0  0  0
   -2.6895    1.4374    1.2748 H   0  0  0  0  0  0  0  0  0  0  0  0
   -2.8753    1.8814   -0.4349 H   0  0  0  0  0  0  0  0  0  0  0  0
   -4.8469    0.2220    1.2217 H   0  0  0  0  0  0  0  0  0  0  0  0
   -5.0570    0.6066   -0.4892 H   0  0  0  0  0  0  0  0  0  0  0  0
   -5.0699    3.0620    0.0772 H   0  0  0  0  0  0  0  0  0  0  0  0
   -6.3798    2.1768    0.8738 H   0  0  0  0  0  0  0  0  0  0  0  0
   -5.1558    2.1327    2.7621 H   0  0  0  0  0  0  0  0  0  0  0  0
   -2.5545   -2.5324   -1.4442 H   0  0  0  0  0  0  0  0  0  0  0  0
   -1.4722   -4.3359   -2.6477 H   0  0  0  0  0  0  0  0  0  0  0  0
    0.9671   -4.4562   -2.8737 H   0  0  0  0  0  0  0  0  0  0  0  0
    2.4438   -2.7787   -1.8380 H   0  0  0  0  0  0  0  0  0  0  0  0
    3.3529   -0.2094    2.5902 H   0  0  0  0  0  0  0  0  0  0  0  0
    5.8381   -0.4208    2.5224 H   0  0  0  0  0  0  0  0  0  0  0  0
    5.9569    2.0351   -0.9892 H   0  0  0  0  0  0  0  0  0  0  0  0
    3.4718    2.2502   -0.9268 H   0  0  0  0  0  0  0  0  0  0  0  0
  1  2  1  0
  2  3  1  0
  3  4  1  0
  4  5  1  0
  5  6  1  0
  6  7  1  0
  2  8  2  0
  8  9  1  0
  9 10  2  0
 10 11  1  0
 11 12  2  0
 12 13  1  0
 13 14  2  0
 14 15  1  0
 15 16  2  3
 16 17  1  0
 17 18  2  0
 18 19  1  0
 19 20  2  0
 20 21  1  0
 20 22  1  0
 22 23  2  0
 15  1  1  0
 23 17  1  0
 13  8  1  0
  1 24  1  0
  3 25  1  0
  4 26  1  0
  4 27  1  0
  5 28  1  0
  5 29  1  0
  6 30  1  0
  6 31  1  0
  7 32  1  0
  9 33  1  0
 10 34  1  0
 11 35  1  0
 12 36  1  0
 18 37  1  0
 19 38  1  0
 22 39  1  0
 23 40  1  0
M  END
>  <ScrubInfo>  (3) 
{"isomerGroup": 0, "isomerId": 2, "confId": 0, "nr_conformers:": 1, "nr_isomers:": 6}

$$$$
_i3
     RDKit          3D

 40 42  0  0  0  0  0  0  0  0999 V2000
    1.5602    1.0306    2.5001 N   0  0  0  0  0  0  0  0  0  0  0  0
    1.6939    0.4902    1.2547 C   0  0  0  0  0  0  0  0  0  0  0  0
    2.9021    0.2950    0.8026 N   0  0  0  0  0  0  0  0  0  0  0  0
    3.0665   -0.2631   -0.4727 C   0  0  0  0  0  0  0  0  0  0  0  0
    3.0817    0.5530   -1.6100 C   0  0  0  0  0  0  0  0  0  0  0  0
    3.2701   -0.0039   -2.8761 C   0  0  0  0  0  0  0  0  0  0  0  0
    3.4556   -1.3762   -2.9971 C   0  0  0  0  0  0  0  0  0  0  0  0
    3.6350   -1.9129   -4.2113 F   0  0  0  0  0  0  0  0  0  0  0  0
    3.4612   -2.2006   -1.8776 C   0  0  0  0  0  0  0  0  0  0  0  0
    3.2716   -1.6403   -0.6133 C   0  0  0  0  0  0  0  0  0  0  0  0
    0.6047    0.1544    0.4907 N   0  0  0  0  0  0  0  0  0  0  0  0
   -0.5930    0.4725    0.8961 C   0  0  0  0  0  0  0  0  0  0  0  0
   -1.6878    0.1018    0.1316 N   0  0  0  0  0  0  0  0  0  0  0  0
   -1.5224   -0.7311   -1.0531 C   0  0  0  0  0  0  0  0  0  0  0  0
   -2.8609   -0.8967   -1.7623 C   0  0  0  0  0  0  0  0  0  0  0  0
   -2.7127   -1.7249   -3.0296 C   0  0  0  0  0  0  0  0  0  0  0  0
   -3.9782   -1.8661   -3.6625 O   0  0  0  0  0  0  0  0  0  0  0  0
   -0.8163    1.2255    2.1737 C   0  0  0  0  0  0  0  0  0  0  0  0
   -2.0737    1.6764    2.5891 C   0  0  0  0  0  0  0  0  0  0  0  0
   -2.1971    2.3542    3.8032 C   0  0  0  0  0  0  0  0  0  0  0  0
   -1.0716    2.5807    4.5954 C   0  0  0  0  0  0  0  0  0  0  0  0
    0.1853    2.1460    4.1692 C   0  0  0  0  0  0  0  0  0  0  0  0
    0.3236    1.4879    2.9445 C   0  0  0  0  0  0  0  0  0  0  0  0
    2.4098    1.3656    2.9244 H   0  0  0  0  0  0  0  0  0  0  0  0
    2.9356    1.6237   -1.5016 H   0  0  0  0  0  0  0  0  0  0  0  0
    3.2735    0.6225   -3.7615 H   0  0  0  0  0  0  0  0  0  0  0  0
    3.6141   -3.2680   -1.9933 H   0  0  0  0  0  0  0  0  0  0  0  0
    3.2763   -2.2721    0.2700 H   0  0  0  0  0  0  0  0  0  0  0  0
   -2.5403   -0.0818    0.6463 H   0  0  0  0  0  0  0  0  0  0  0  0
   -0.8015   -0.2666   -1.7363 H   0  0  0  0  0  0  0  0  0  0  0  0
   -1.1323   -1.7128   -0.7601 H   0  0  0  0  0  0  0  0  0  0  0  0
   -3.2865    0.0836   -2.0123 H   0  0  0  0  0  0  0  0  0  0  0  0
   -3.5912   -1.3710   -1.0942 H   0  0  0  0  0  0  0  0  0  0  0  0
   -2.0358   -1.2361   -3.7372 H   0  0  0  0  0  0  0  0  0  0  0  0
   -2.3196   -2.7235   -2.8131 H   0  0  0  0  0  0  0  0  0  0  0  0
   -4.5504   -2.3835   -3.0707 H   0  0  0  0  0  0  0  0  0  0  0  0
   -2.9591    1.5262    1.9810 H   0  0  0  0  0  0  0  0  0  0  0  0
   -3.1716    2.7075    4.1324 H   0  0  0  0  0  0  0  0  0  0  0  0
   -1.1717    3.1024    5.5445 H   0  0  0  0  0  0  0  0  0  0  0  0
    1.0531    2.3317    4.7966 H   0  0  0  0  0  0  0  0  0  0  0  0
  1  2  1  0
  2  3  2  3
  3  4  1  0
  4  5  2  0
  5  6  1  0
  6  7  2  0
  7  8  1  0
  7  9  1  0
  9 10  2  0
  2 11  1  0
 11 12  2  0
 12 13  1  0
 13 14  1  0
 14 15  1  0
 15 16  1  0
 16 17  1  0
 12 18  1  0
 18 19  2  0
 19 20  1  0
 20 21  2  0
 21 22  1  0
 22 23  2  0
 23  1  1  0
 10  4  1  0
 23 18  1  0
  1 24  1  0
  5 25  1  0
  6 26  1  0
  9 27  1  0
 10 28  1  0
 13 29  1  0
 14 30  1  0
 14 31  1  0
 15 32  1  0
 15 33  1  0
 16 34  1  0
 16 35  1  0
 17 36  1  0
 19 37  1  0
 20 38  1  0
 21 39  1  0
 22 40  1  0
M  END
>  <ScrubInfo>  (4) 
{"isomerGroup": 0, "isomerId": 3, "confId": 0, "nr_conformers:": 1, "nr_isomers:": 6}

$$$$
_i4
     RDKit          3D

 40 42  0  0  0  0  0  0  0  0999 V2000
    1.3447   -1.0471   -0.2395 N   0  0  0  0  0  0  0  0  0  0  0  0
    1.0969    0.1613   -0.8331 C   0  0  0  0  0  0  0  0  0  0  0  0
    2.1988    0.8377   -1.2810 N   0  0  0  0  0  0  0  0  0  0  0  0
    3.4026    1.0683   -0.5785 C   0  0  0  0  0  0  0  0  0  0  0  0
    3.5590    0.8181    0.7925 C   0  0  0  0  0  0  0  0  0  0  0  0
    4.7829    1.0514    1.4264 C   0  0  0  0  0  0  0  0  0  0  0  0
    5.8561    1.5353    0.6905 C   0  0  0  0  0  0  0  0  0  0  0  0
    7.0285    1.7569    1.2983 F   0  0  0  0  0  0  0  0  0  0  0  0
    5.7281    1.7944   -0.6670 C   0  0  0  0  0  0  0  0  0  0  0  0
    4.5037    1.5621   -1.2981 C   0  0  0  0  0  0  0  0  0  0  0  0
   -0.0819    0.6516   -1.0670 N   0  0  0  0  0  0  0  0  0  0  0  0
   -1.1736   -0.0354   -0.5781 C   0  0  0  0  0  0  0  0  0  0  0  0
   -2.1843    0.7238   -0.3540 N   0  0  0  0  0  0  0  0  0  0  0  0
   -3.4063    0.3048    0.3035 C   0  0  0  0  0  0  0  0  0  0  0  0
   -4.1153    1.5509    0.8425 C   0  0  0  0  0  0  0  0  0  0  0  0
   -4.7774    2.3648   -0.2638 C   0  0  0  0  0  0  0  0  0  0  0  0
   -5.9363    1.6914   -0.7496 O   0  0  0  0  0  0  0  0  0  0  0  0
   -1.0300   -1.5057   -0.3441 C   0  0  0  0  0  0  0  0  0  0  0  0
   -2.0858   -2.4208   -0.3401 C   0  0  0  0  0  0  0  0  0  0  0  0
   -1.8426   -3.7691   -0.0653 C   0  0  0  0  0  0  0  0  0  0  0  0
   -0.5460   -4.2079    0.1965 C   0  0  0  0  0  0  0  0  0  0  0  0
    0.5178   -3.3069    0.1490 C   0  0  0  0  0  0  0  0  0  0  0  0
    0.2854   -1.9635   -0.1633 C   0  0  0  0  0  0  0  0  0  0  0  0
    2.2579   -1.4409   -0.4239 H   0  0  0  0  0  0  0  0  0  0  0  0
    1.9151    1.6723   -1.7898 H   0  0  0  0  0  0  0  0  0  0  0  0
    2.7245    0.4682    1.3957 H   0  0  0  0  0  0  0  0  0  0  0  0
    4.8997    0.8664    2.4896 H   0  0  0  0  0  0  0  0  0  0  0  0
    6.5779    2.1731   -1.2257 H   0  0  0  0  0  0  0  0  0  0  0  0
    4.4145    1.7593   -2.3644 H   0  0  0  0  0  0  0  0  0  0  0  0
   -3.1888   -0.3496    1.1548 H   0  0  0  0  0  0  0  0  0  0  0  0
   -4.0682   -0.2159   -0.3950 H   0  0  0  0  0  0  0  0  0  0  0  0
   -4.8806    1.2303    1.5594 H   0  0  0  0  0  0  0  0  0  0  0  0
   -3.3963    2.1817    1.3784 H   0  0  0  0  0  0  0  0  0  0  0  0
   -4.0996    2.5386   -1.1048 H   0  0  0  0  0  0  0  0  0  0  0  0
   -5.0949    3.3399    0.1198 H   0  0  0  0  0  0  0  0  0  0  0  0
   -6.5826    1.6740   -0.0240 H   0  0  0  0  0  0  0  0  0  0  0  0
   -3.0995   -2.1161   -0.5698 H   0  0  0  0  0  0  0  0  0  0  0  0
   -2.6683   -4.4773   -0.0561 H   0  0  0  0  0  0  0  0  0  0  0  0
   -0.3623   -5.2558    0.4220 H   0  0  0  0  0  0  0  0  0  0  0  0
    1.5261   -3.6649    0.3389 H   0  0  0  0  0  0  0  0  0  0  0  0
  1  2  1  0
  2  3  1  0
  3  4  1  0
  4  5  2  0
  5  6  1  0
  6  7  2  0
  7  8  1  0
  7  9  1  0
  9 10  2  0
  2 11  2  0
 11 12  1  0
 12 13  2  3
 13 14  1  0
 14 15  1  0
 15 16  1  0
 16 17  1  0
 12 18  1  0
 18 19  2  0
 19 20  1  0
 20 21  2  0
 21 22  1  0
 22 23  2  0
 23  1  1  0
 10  4  1  0
 23 18  1  0
  1 24  1  0
  3 25  1  0
  5 26  1  0
  6 27  1  0
  9 28  1  0
 10 29  1  0
 14 30  1  0
 14 31  1  0
 15 32  1  0
 15 33  1  0
 16 34  1  0
 16 35  1  0
 17 36  1  0
 19 37  1  0
 20 38  1  0
 21 39  1  0
 22 40  1  0
M  END
>  <ScrubInfo>  (5) 
{"isomerGroup": 0, "isomerId": 4, "confId": 0, "nr_conformers:": 1, "nr_isomers:": 6}

$$$$
_i5
     RDKit          3D

 40 42  0  0  0  0  0  0  0  0999 V2000
    1.3663    1.8827    1.6750 N   0  0  0  0  0  0  0  0  0  0  0  0
    1.8508    0.8375    0.9426 C   0  0  0  0  0  0  0  0  0  0  0  0
    3.1293    0.5951    0.9728 N   0  0  0  0  0  0  0  0  0  0  0  0
    3.6342   -0.4741    0.2246 C   0  0  0  0  0  0  0  0  0  0  0  0
    4.0673   -0.2714   -1.0901 C   0  0  0  0  0  0  0  0  0  0  0  0
    4.5780   -1.3355   -1.8353 C   0  0  0  0  0  0  0  0  0  0  0  0
    4.6627   -2.5966   -1.2562 C   0  0  0  0  0  0  0  0  0  0  0  0
    5.1528   -3.6184   -1.9699 F   0  0  0  0  0  0  0  0  0  0  0  0
    4.2503   -2.8124    0.0539 C   0  0  0  0  0  0  0  0  0  0  0  0
    3.7399   -1.7465    0.7967 C   0  0  0  0  0  0  0  0  0  0  0  0
    0.8822    0.1668    0.2511 N   0  0  0  0  0  0  0  0  0  0  0  0
   -0.4715    0.3861    0.1829 C   0  0  0  0  0  0  0  0  0  0  0  0
   -1.1043   -0.4305   -0.5946 N   0  0  0  0  0  0  0  0  0  0  0  0
   -2.5245   -0.4311   -0.8702 C   0  0  0  0  0  0  0  0  0  0  0  0
   -2.8079   -1.5545   -1.8704 C   0  0  0  0  0  0  0  0  0  0  0  0
   -4.2727   -1.5922   -2.2828 C   0  0  0  0  0  0  0  0  0  0  0  0
   -5.1104   -1.8435   -1.1623 O   0  0  0  0  0  0  0  0  0  0  0  0
   -0.9781    1.5339    1.0174 C   0  0  0  0  0  0  0  0  0  0  0  0
   -2.3134    1.9336    1.1309 C   0  0  0  0  0  0  0  0  0  0  0  0
   -2.6679    3.0205    1.9380 C   0  0  0  0  0  0  0  0  0  0  0  0
   -1.6948    3.7201    2.6424 C   0  0  0  0  0  0  0  0  0  0  0  0
   -0.3606    3.3334    2.5451 C   0  0  0  0  0  0  0  0  0  0  0  0
    0.0113    2.2448    1.7414 C   0  0  0  0  0  0  0  0  0  0  0  0
    2.0451    2.4067    2.2071 H   0  0  0  0  0  0  0  0  0  0  0  0
    4.0069    0.7208   -1.5294 H   0  0  0  0  0  0  0  0  0  0  0  0
    4.9137   -1.1871   -2.8564 H   0  0  0  0  0  0  0  0  0  0  0  0
    4.3333   -3.8027    0.4894 H   0  0  0  0  0  0  0  0  0  0  0  0
    3.4248   -1.9016    1.8251 H   0  0  0  0  0  0  0  0  0  0  0  0
    1.1839   -0.6113   -0.3176 H   0  0  0  0  0  0  0  0  0  0  0  0
   -3.0925   -0.6239    0.0454 H   0  0  0  0  0  0  0  0  0  0  0  0
   -2.8313    0.5196   -1.3187 H   0  0  0  0  0  0  0  0  0  0  0  0
   -2.5276   -2.5130   -1.4159 H   0  0  0  0  0  0  0  0  0  0  0  0
   -2.1835   -1.4251   -2.7626 H   0  0  0  0  0  0  0  0  0  0  0  0
   -4.5773   -0.6402   -2.7289 H   0  0  0  0  0  0  0  0  0  0  0  0
   -4.4429   -2.3809   -3.0227 H   0  0  0  0  0  0  0  0  0  0  0  0
   -4.8559   -2.7103   -0.8002 H   0  0  0  0  0  0  0  0  0  0  0  0
   -3.1191    1.4320    0.6158 H   0  0  0  0  0  0  0  0  0  0  0  0
   -3.7117    3.3178    2.0147 H   0  0  0  0  0  0  0  0  0  0  0  0
   -1.9747    4.5639    3.2682 H   0  0  0  0  0  0  0  0  0  0  0  0
    0.3898    3.8875    3.1036 H   0  0  0  0  0  0  0  0  0  0  0  0
  1  2  1  0
  2  3  2  3
  3  4  1  0
  4  5  2  0
  5  6  1  0
  6  7  2  0
  7  8  1  0
  7  9  1  0
  9 10  2  0
  2 11  1  0
 11 12  1  0
 12 13  2  3
 13 14  1  0
 14 15  1  0
 15 16  1  0
 16 17  1  0
 12 18  1  0
 18 19  2  0
 19 20  1  0
 20 21  2  0
 21 22  1  0
 22 23  2  0
 23  1  1  0
 10  4  1  0
 23 18  1  0
  1 24  1  0
  5 25  1  0
  6 26  1  0
  9 27  1  0
 10 28  1  0
 11 29  1  0
 14 30  1  0
 14 31  1  0
 15 32  1  0
 15 33  1  0
 16 34  1  0
 16 35  1  0
 17 36  1  0
 19 37  1  0
 20 38  1  0
 21 39  1  0
 22 40  1  0
M  END
>  <ScrubInfo>  (6) 
{"isomerGroup": 0, "isomerId": 5, "confId": 0, "nr_conformers:": 1, "nr_isomers:": 6}

$$$$
