REMARK SMILES OCCCNc1nc(Nc2ccc(F)cc2)nc2ccccc12
REMARK SMILES IDX 4 1 3 2 2 3 1 4 5 6 6 8 7 9 23 10 8 11 22 12 18 13 17 14
REMARK SMILES IDX 21 15 19 16 20 17 9 18 10 20 11 21 16 22 12 23 15 24 13 25
REMARK SMILES IDX 14 26
REMARK H PARENT 1 5 5 7 9 19
ROOT
ATOM      1  C   UNL     1      -3.239   0.561   0.787  1.00  0.00     0.117 C 
ENDROOT
BRANCH   1   2
ATOM      2  C   UNL     1      -3.391   1.447  -0.452  1.00  0.00     0.049 C 
BRANCH   2   3
ATOM      3  C   UNL     1      -3.829   2.855  -0.080  1.00  0.00     0.158 C 
BRANCH   3   4
ATOM      4  O   UNL     1      -5.116   2.839   0.524  1.00  0.00    -0.396 OA
ATOM      5  H   UNL     1      -5.752   2.559  -0.158  1.00  0.00     0.210 HD
ENDBRANCH   3   4
ENDBRANCH   2   3
ENDBRANCH   1   2
BRANCH   1   6
ATOM      6  N   UNL     1      -2.800  -0.786   0.413  1.00  0.00    -0.369 N 
ATOM      7  H   UNL     1      -3.087  -1.468   1.112  1.00  0.00     0.162 HD
BRANCH   6   8
ATOM      8  C   UNL     1      -1.413  -0.960   0.189  1.00  0.00     0.139 A 
ATOM      9  N   UNL     1      -0.593   0.096   0.322  1.00  0.00    -0.195 NA
ATOM     10  C   UNL     1      -0.936  -2.227  -0.183  1.00  0.00     0.043 A 
ATOM     11  C   UNL     1       0.719  -0.085   0.117  1.00  0.00     0.229 A 
ATOM     12  C   UNL     1      -1.738  -3.380  -0.386  1.00  0.00     0.014 A 
ATOM     13  C   UNL     1       0.446  -2.310  -0.367  1.00  0.00     0.078 A 
ATOM     14  N   UNL     1       1.258  -1.262  -0.214  1.00  0.00    -0.213 NA
ATOM     15  C   UNL     1      -1.164  -4.596  -0.748  1.00  0.00     0.001 A 
ATOM     16  C   UNL     1       0.998  -3.534  -0.726  1.00  0.00     0.029 A 
ATOM     17  C   UNL     1       0.211  -4.674  -0.915  1.00  0.00     0.002 A 
BRANCH  11  18
ATOM     18  N   UNL     1       1.494   1.059   0.287  1.00  0.00    -0.324 N 
ATOM     19  H   UNL     1       0.887   1.824   0.540  1.00  0.00     0.170 HD
BRANCH  18  20
ATOM     20  C   UNL     1       2.859   1.339   0.170  1.00  0.00     0.041 A 
ATOM     21  C   UNL     1       3.822   0.392  -0.200  1.00  0.00     0.029 A 
ATOM     22  C   UNL     1       3.300   2.647   0.444  1.00  0.00     0.029 A 
ATOM     23  C   UNL     1       5.176   0.734  -0.296  1.00  0.00     0.041 A 
ATOM     24  C   UNL     1       4.650   2.995   0.350  1.00  0.00     0.041 A 
ATOM     25  C   UNL     1       5.577   2.033  -0.020  1.00  0.00     0.123 A 
ATOM     26  F   UNL     1       6.872   2.361  -0.112  1.00  0.00    -0.207 F 
ENDBRANCH  18  20
ENDBRANCH  11  18
ENDBRANCH   6   8
ENDBRANCH   1   6
TORSDOF 7
