REMARK SMILES Cc1cc(Br)ccc1Nc1nc(NCCC[NH+](C)C)nc2c1cnn2C
REMARK SMILES IDX 14 1 15 2 16 3 17 4 18 5 19 6 13 8 12 10 11 11 20 12 10 13
REMARK SMILES IDX 21 14 22 15 25 16 23 17 24 18 26 19 9 20 8 22 7 23 2 24 6 25
REMARK SMILES IDX 3 26 4 27 1 28 5 29
REMARK H PARENT 17 7 13 9 9 21
ROOT
ATOM      1  C   UNL     1      -2.940  -0.981   1.374  1.00  0.00     0.122 C 
ENDROOT
BRANCH   1   2
ATOM      2  C   UNL     1      -3.824  -0.173   0.416  1.00  0.00     0.083 C 
BRANCH   2   3
ATOM      3  C   UNL     1      -4.122  -0.947  -0.865  1.00  0.00     0.263 C 
BRANCH   3   4
ATOM      4  N   UNL     1      -4.896  -0.086  -1.851  1.00  0.00    -0.340 N 
ATOM      5  C   UNL     1      -6.311   0.197  -1.434  1.00  0.00     0.332 C 
ATOM      6  C   UNL     1      -4.849  -0.680  -3.236  1.00  0.00     0.332 C 
ATOM      7  H   UNL     1      -4.402   0.815  -1.912  1.00  0.00     0.347 HD
ENDBRANCH   3   4
ENDBRANCH   2   3
ENDBRANCH   1   2
BRANCH   1   8
ATOM      8  N   UNL     1      -1.738  -1.463   0.715  1.00  0.00    -0.354 N 
ATOM      9  H   UNL     1      -1.354  -2.317   1.124  1.00  0.00     0.163 HD
BRANCH   8  10
ATOM     10  C   UNL     1      -0.647  -0.594   0.745  1.00  0.00     0.226 A 
ATOM     11  N   UNL     1       0.536  -1.209   0.905  1.00  0.00    -0.195 NA
ATOM     12  N   UNL     1      -0.841   0.725   0.599  1.00  0.00    -0.193 NA
ATOM     13  C   UNL     1       1.684  -0.485   0.929  1.00  0.00     0.147 A 
ATOM     14  C   UNL     1       0.305   1.423   0.667  1.00  0.00     0.165 A 
ATOM     15  C   UNL     1       1.576   0.904   0.828  1.00  0.00     0.082 A 
ATOM     16  N   UNL     1       0.463   2.782   0.606  1.00  0.00    -0.250 N 
ATOM     17  C   UNL     1       2.419   2.034   0.859  1.00  0.00     0.149 A 
ATOM     18  N   UNL     1       1.748   3.182   0.706  1.00  0.00    -0.179 NA
ATOM     19  C   UNL     1      -0.571   3.776   0.466  1.00  0.00     0.176 C 
BRANCH  13  20
ATOM     20  N   UNL     1       2.881  -1.189   1.116  1.00  0.00    -0.339 N 
ATOM     21  H   UNL     1       2.659  -2.180   1.164  1.00  0.00     0.168 HD
BRANCH  20  22
ATOM     22  C   UNL     1       4.126  -0.987   0.478  1.00  0.00     0.043 A 
ATOM     23  C   UNL     1       4.216  -0.416  -0.802  1.00  0.00     0.027 A 
ATOM     24  C   UNL     1       5.306  -1.444   1.104  1.00  0.00    -0.026 A 
ATOM     25  C   UNL     1       5.450  -0.262  -1.437  1.00  0.00     0.018 A 
ATOM     26  C   UNL     1       6.543  -1.287   0.457  1.00  0.00     0.021 A 
ATOM     27  C   UNL     1       6.609  -0.696  -0.803  1.00  0.00     0.018 A 
ATOM     28  C   UNL     1       5.266  -2.083   2.466  1.00  0.00     0.046 C 
ATOM     29  Br  UNL     1       8.280  -0.492  -1.661  1.00  0.00    -0.051 Br
ENDBRANCH  20  22
ENDBRANCH  13  20
ENDBRANCH   8  10
ENDBRANCH   1   8
TORSDOF 7
