_i0
     RDKit          3D

 51 53  0  0  0  0  0  0  0  0999 V2000
   -4.1221   -0.9466   -0.8649 C   0  0  0  0  0  0  0  0  0  0  0  0
   -4.8961   -0.0858   -1.8515 N   0  0  0  0  0  4  0  0  0  0  0  0
   -6.3113    0.1970   -1.4336 C   0  0  0  0  0  0  0  0  0  0  0  0
   -4.8492   -0.6796   -3.2362 C   0  0  0  0  0  0  0  0  0  0  0  0
   -3.8235   -0.1735    0.4165 C   0  0  0  0  0  0  0  0  0  0  0  0
   -2.9400   -0.9808    1.3737 C   0  0  0  0  0  0  0  0  0  0  0  0
   -1.7384   -1.4633    0.7153 N   0  0  0  0  0  0  0  0  0  0  0  0
   -0.6471   -0.5935    0.7445 C   0  0  0  0  0  0  0  0  0  0  0  0
    0.5356   -1.2090    0.9046 N   0  0  0  0  0  0  0  0  0  0  0  0
   -0.8412    0.7249    0.5988 N   0  0  0  0  0  0  0  0  0  0  0  0
    1.6840   -0.4847    0.9286 C   0  0  0  0  0  0  0  0  0  0  0  0
    0.3055    1.4231    0.6670 C   0  0  0  0  0  0  0  0  0  0  0  0
    2.8812   -1.1887    1.1163 N   0  0  0  0  0  0  0  0  0  0  0  0
    1.5763    0.9040    0.8276 C   0  0  0  0  0  0  0  0  0  0  0  0
    0.4633    2.7819    0.6056 N   0  0  0  0  0  0  0  0  0  0  0  0
    4.1260   -0.9868    0.4780 C   0  0  0  0  0  0  0  0  0  0  0  0
    2.4188    2.0343    0.8594 C   0  0  0  0  0  0  0  0  0  0  0  0
    1.7485    3.1817    0.7057 N   0  0  0  0  0  0  0  0  0  0  0  0
   -0.5707    3.7756    0.4658 C   0  0  0  0  0  0  0  0  0  0  0  0
    4.2158   -0.4159   -0.8017 C   0  0  0  0  0  0  0  0  0  0  0  0
    5.3056   -1.4440    1.1037 C   0  0  0  0  0  0  0  0  0  0  0  0
    5.4505   -0.2621   -1.4366 C   0  0  0  0  0  0  0  0  0  0  0  0
    5.2657   -2.0826    2.4665 C   0  0  0  0  0  0  0  0  0  0  0  0
    6.5433   -1.2874    0.4566 C   0  0  0  0  0  0  0  0  0  0  0  0
    6.6089   -0.6960   -0.8028 C   0  0  0  0  0  0  0  0  0  0  0  0
    8.2804   -0.4923   -1.6605 Br  0  0  0  0  0  0  0  0  0  0  0  0
   -4.7157   -1.8476   -0.6753 H   0  0  0  0  0  0  0  0  0  0  0  0
   -3.1950   -1.2289   -1.3738 H   0  0  0  0  0  0  0  0  0  0  0  0
   -4.4024    0.8151   -1.9119 H   0  0  0  0  0  0  0  0  0  0  0  0
   -6.7828    0.8004   -2.2141 H   0  0  0  0  0  0  0  0  0  0  0  0
   -6.2929    0.7653   -0.5017 H   0  0  0  0  0  0  0  0  0  0  0  0
   -6.8352   -0.7541   -1.3071 H   0  0  0  0  0  0  0  0  0  0  0  0
   -5.3640    0.0038   -3.9168 H   0  0  0  0  0  0  0  0  0  0  0  0
   -5.3408   -1.6558   -3.2125 H   0  0  0  0  0  0  0  0  0  0  0  0
   -3.8009   -0.7728   -3.5321 H   0  0  0  0  0  0  0  0  0  0  0  0
   -4.7534    0.0694    0.9423 H   0  0  0  0  0  0  0  0  0  0  0  0
   -3.3483    0.7816    0.1680 H   0  0  0  0  0  0  0  0  0  0  0  0
   -2.7105   -0.3982    2.2749 H   0  0  0  0  0  0  0  0  0  0  0  0
   -3.5099   -1.8551    1.7117 H   0  0  0  0  0  0  0  0  0  0  0  0
   -1.3537   -2.3167    1.1241 H   0  0  0  0  0  0  0  0  0  0  0  0
    2.6590   -2.1805    1.1637 H   0  0  0  0  0  0  0  0  0  0  0  0
    3.4942    2.0677    0.9866 H   0  0  0  0  0  0  0  0  0  0  0  0
   -1.5461    3.2904    0.3854 H   0  0  0  0  0  0  0  0  0  0  0  0
   -0.3709    4.3559   -0.4386 H   0  0  0  0  0  0  0  0  0  0  0  0
   -0.5494    4.4212    1.3474 H   0  0  0  0  0  0  0  0  0  0  0  0
    3.3233   -0.0961   -1.3328 H   0  0  0  0  0  0  0  0  0  0  0  0
    5.4948    0.1884   -2.4247 H   0  0  0  0  0  0  0  0  0  0  0  0
    4.6792   -3.0065    2.4351 H   0  0  0  0  0  0  0  0  0  0  0  0
    4.8254   -1.3947    3.1955 H   0  0  0  0  0  0  0  0  0  0  0  0
    6.2697   -2.3394    2.8206 H   0  0  0  0  0  0  0  0  0  0  0  0
    7.4567   -1.6282    0.9398 H   0  0  0  0  0  0  0  0  0  0  0  0
  1  2  1  0
  2  3  1  0
  2  4  1  0
  5  1  1  0
  6  5  1  0
  7  6  1  0
  8  7  1  0
  9  8  2  0
  8 10  1  0
 11  9  1  0
 10 12  2  0
 13 11  1  0
 14 11  2  0
 12 14  1  0
 15 12  1  0
 16 13  1  0
 14 17  1  0
 18 15  1  0
 15 19  1  0
 20 16  2  0
 16 21  1  0
 17 18  2  0
 22 20  1  0
 23 21  1  0
 21 24  2  0
 25 22  2  0
 24 25  1  0
 25 26  1  0
  1 27  1  0
  1 28  1  0
  2 29  1  0
  3 30  1  0
  3 31  1  0
  3 32  1  0
  4 33  1  0
  4 34  1  0
  4 35  1  0
  5 36  1  0
  5 37  1  0
  6 38  1  0
  6 39  1  0
  7 40  1  0
 13 41  1  0
 17 42  1  0
 19 43  1  0
 19 44  1  0
 19 45  1  0
 20 46  1  0
 22 47  1  0
 23 48  1  0
 23 49  1  0
 23 50  1  0
 24 51  1  0
M  CHG  1   2   1
M  END
>  <ScrubInfo>  (1) 
{"isomerGroup": 0, "isomerId": 0, "confId": 0, "nr_conformers:": 1, "nr_isomers:": 9}

$$$$
_i1
     RDKit          3D

 51 53  0  0  0  0  0  0  0  0999 V2000
    1.2097   -0.1380    0.4171 N   0  0  0  0  0  0  0  0  0  0  0  0
    2.2845   -0.7718   -0.1791 C   0  0  0  0  0  0  0  0  0  0  0  0
    3.5954   -0.4355    0.0998 N   0  0  0  0  0  0  0  0  0  0  0  0
    4.1243    0.8156    0.4876 C   0  0  0  0  0  0  0  0  0  0  0  0
    3.4550    2.0210    0.2176 C   0  0  0  0  0  0  0  0  0  0  0  0
    3.9743    3.2495    0.6340 C   0  0  0  0  0  0  0  0  0  0  0  0
    5.1727    3.2869    1.3351 C   0  0  0  0  0  0  0  0  0  0  0  0
    5.8792    4.9460    1.8993 Br  0  0  0  0  0  0  0  0  0  0  0  0
    5.8552    2.1079    1.6225 C   0  0  0  0  0  0  0  0  0  0  0  0
    5.3379    0.8662    1.2106 C   0  0  0  0  0  0  0  0  0  0  0  0
    6.1009   -0.3848    1.5590 C   0  0  0  0  0  0  0  0  0  0  0  0
    1.9542   -1.7682   -1.0097 C   0  0  0  0  0  0  0  0  0  0  0  0
    2.6374   -2.7213   -1.8915 C   0  0  0  0  0  0  0  0  0  0  0  0
    1.8092   -3.4869   -2.5551 N   0  0  0  0  0  0  0  0  0  0  0  0
    0.5271   -3.1205   -2.1206 N   0  0  0  0  0  0  0  0  0  0  0  0
   -0.6170   -3.6021   -2.8536 C   0  0  0  0  0  0  0  0  0  0  0  0
    0.5184   -2.0692   -1.2194 C   0  0  0  0  0  0  0  0  0  0  0  0
   -0.4712   -1.4543   -0.6611 N   0  0  0  0  0  0  0  0  0  0  0  0
   -0.1049   -0.4693    0.2308 C   0  0  0  0  0  0  0  0  0  0  0  0
   -1.0110    0.1589    0.9060 N   0  0  0  0  0  0  0  0  0  0  0  0
   -2.4069   -0.2242    0.7351 C   0  0  0  0  0  0  0  0  0  0  0  0
   -3.0354    0.6255   -0.3651 C   0  0  0  0  0  0  0  0  0  0  0  0
   -4.5023    0.2979   -0.6166 C   0  0  0  0  0  0  0  0  0  0  0  0
   -5.3951    0.5849    0.5748 N   0  0  0  0  0  4  0  0  0  0  0  0
   -5.4406    2.0399    0.9596 C   0  0  0  0  0  0  0  0  0  0  0  0
   -6.7834    0.0436    0.3510 C   0  0  0  0  0  0  0  0  0  0  0  0
    1.4226    0.5087    1.1638 H   0  0  0  0  0  0  0  0  0  0  0  0
    4.3069   -1.0701   -0.2496 H   0  0  0  0  0  0  0  0  0  0  0  0
    2.5347    2.0281   -0.3608 H   0  0  0  0  0  0  0  0  0  0  0  0
    3.4416    4.1667    0.3971 H   0  0  0  0  0  0  0  0  0  0  0  0
    6.7923    2.1508    2.1743 H   0  0  0  0  0  0  0  0  0  0  0  0
    5.4552   -1.0901    2.0923 H   0  0  0  0  0  0  0  0  0  0  0  0
    6.9542   -0.1688    2.2106 H   0  0  0  0  0  0  0  0  0  0  0  0
    6.4862   -0.8569    0.6497 H   0  0  0  0  0  0  0  0  0  0  0  0
    3.7316   -2.7391   -1.9736 H   0  0  0  0  0  0  0  0  0  0  0  0
   -0.4410   -4.6156   -3.2287 H   0  0  0  0  0  0  0  0  0  0  0  0
   -0.8248   -2.9483   -3.7063 H   0  0  0  0  0  0  0  0  0  0  0  0
   -1.5052   -3.6327   -2.2145 H   0  0  0  0  0  0  0  0  0  0  0  0
   -2.5425   -1.2948    0.5408 H   0  0  0  0  0  0  0  0  0  0  0  0
   -2.9083   -0.0325    1.6898 H   0  0  0  0  0  0  0  0  0  0  0  0
   -2.9037    1.6900   -0.1413 H   0  0  0  0  0  0  0  0  0  0  0  0
   -2.4901    0.4564   -1.3025 H   0  0  0  0  0  0  0  0  0  0  0  0
   -4.6137   -0.7672   -0.8496 H   0  0  0  0  0  0  0  0  0  0  0  0
   -4.8914    0.8828   -1.4576 H   0  0  0  0  0  0  0  0  0  0  0  0
   -5.0203    0.0735    1.3840 H   0  0  0  0  0  0  0  0  0  0  0  0
   -4.4485    2.3405    1.3021 H   0  0  0  0  0  0  0  0  0  0  0  0
   -5.7561    2.6218    0.0898 H   0  0  0  0  0  0  0  0  0  0  0  0
   -6.1521    2.1523    1.7823 H   0  0  0  0  0  0  0  0  0  0  0  0
   -6.7026   -1.0289    0.1550 H   0  0  0  0  0  0  0  0  0  0  0  0
   -7.2286    0.5668   -0.4995 H   0  0  0  0  0  0  0  0  0  0  0  0
   -7.3641    0.2091    1.2624 H   0  0  0  0  0  0  0  0  0  0  0  0
  1  2  1  0
  2  3  1  0
  3  4  1  0
  4  5  2  0
  5  6  1  0
  6  7  2  0
  7  8  1  0
  7  9  1  0
  9 10  2  0
 10 11  1  0
  2 12  2  0
 12 13  1  0
 13 14  2  0
 14 15  1  0
 15 16  1  0
 15 17  1  0
 17 18  2  0
 18 19  1  0
 19 20  2  3
 20 21  1  0
 21 22  1  0
 22 23  1  0
 23 24  1  0
 24 25  1  0
 24 26  1  0
 19  1  1  0
 10  4  1  0
 17 12  1  0
  1 27  1  0
  3 28  1  0
  5 29  1  0
  6 30  1  0
  9 31  1  0
 11 32  1  0
 11 33  1  0
 11 34  1  0
 13 35  1  0
 16 36  1  0
 16 37  1  0
 16 38  1  0
 21 39  1  0
 21 40  1  0
 22 41  1  0
 22 42  1  0
 23 43  1  0
 23 44  1  0
 24 45  1  0
 25 46  1  0
 25 47  1  0
 25 48  1  0
 26 49  1  0
 26 50  1  0
 26 51  1  0
M  CHG  1  24   1
M  END
>  <ScrubInfo>  (2) 
{"isomerGroup": 0, "isomerId": 1, "confId": 0, "nr_conformers:": 1, "nr_isomers:": 9}

$$$$
_i2
     RDKit          3D

 51 53  0  0  0  0  0  0  0  0999 V2000
   -0.1812    0.3220    0.3123 N   0  0  0  0  0  0  0  0  0  0  0  0
    0.4260    0.0110    1.5001 C   0  0  0  0  0  0  0  0  0  0  0  0
    1.7788    0.2207    1.5520 N   0  0  0  0  0  0  0  0  0  0  0  0
    2.6624   -0.4747    0.6269 C   0  0  0  0  0  0  0  0  0  0  0  0
    4.1050   -0.0369    0.8736 C   0  0  0  0  0  0  0  0  0  0  0  0
    5.1181   -0.7268   -0.0378 C   0  0  0  0  0  0  0  0  0  0  0  0
    5.0171   -0.3038   -1.4906 N   0  0  0  0  0  4  0  0  0  0  0  0
    5.3643    1.1459   -1.7260 C   0  0  0  0  0  0  0  0  0  0  0  0
    5.8693   -1.1952   -2.3667 C   0  0  0  0  0  0  0  0  0  0  0  0
   -0.1949   -0.4651    2.5460 N   0  0  0  0  0  0  0  0  0  0  0  0
   -1.5277   -0.6271    2.3000 C   0  0  0  0  0  0  0  0  0  0  0  0
   -2.2330   -0.3405    1.1386 C   0  0  0  0  0  0  0  0  0  0  0  0
   -3.5569   -0.7070    1.4349 C   0  0  0  0  0  0  0  0  0  0  0  0
   -3.6926   -1.1910    2.6752 N   0  0  0  0  0  0  0  0  0  0  0  0
   -2.4448   -1.1194    3.1871 N   0  0  0  0  0  0  0  0  0  0  0  0
   -2.2151   -1.5505    4.5434 C   0  0  0  0  0  0  0  0  0  0  0  0
   -1.5197    0.2211    0.0095 C   0  0  0  0  0  0  0  0  0  0  0  0
   -1.9750    0.6131   -1.1412 N   0  0  0  0  0  0  0  0  0  0  0  0
   -3.3340    0.5329   -1.4637 C   0  0  0  0  0  0  0  0  0  0  0  0
   -3.8094   -0.6124   -2.1159 C   0  0  0  0  0  0  0  0  0  0  0  0
   -5.1530   -0.7216   -2.4775 C   0  0  0  0  0  0  0  0  0  0  0  0
   -6.0251    0.3259   -2.1980 C   0  0  0  0  0  0  0  0  0  0  0  0
   -7.8470    0.1818   -2.6793 Br  0  0  0  0  0  0  0  0  0  0  0  0
   -5.5641    1.4832   -1.5706 C   0  0  0  0  0  0  0  0  0  0  0  0
   -4.2112    1.6045   -1.2129 C   0  0  0  0  0  0  0  0  0  0  0  0
   -3.7310    2.8591   -0.5392 C   0  0  0  0  0  0  0  0  0  0  0  0
    0.3341    0.8857   -0.3412 H   0  0  0  0  0  0  0  0  0  0  0  0
    2.0525    0.0403    2.5204 H   0  0  0  0  0  0  0  0  0  0  0  0
    2.3757   -0.2444   -0.4043 H   0  0  0  0  0  0  0  0  0  0  0  0
    2.5672   -1.5574    0.7696 H   0  0  0  0  0  0  0  0  0  0  0  0
    4.1883    1.0531    0.8036 H   0  0  0  0  0  0  0  0  0  0  0  0
    4.3678   -0.2842    1.9109 H   0  0  0  0  0  0  0  0  0  0  0  0
    6.1410   -0.5046    0.2870 H   0  0  0  0  0  0  0  0  0  0  0  0
    4.9709   -1.8123   -0.0080 H   0  0  0  0  0  0  0  0  0  0  0  0
    4.0531   -0.4397   -1.8190 H   0  0  0  0  0  0  0  0  0  0  0  0
    4.6172    1.7656   -1.2267 H   0  0  0  0  0  0  0  0  0  0  0  0
    5.3253    1.3344   -2.8024 H   0  0  0  0  0  0  0  0  0  0  0  0
    6.3666    1.3336   -1.3325 H   0  0  0  0  0  0  0  0  0  0  0  0
    5.5336   -2.2261   -2.2275 H   0  0  0  0  0  0  0  0  0  0  0  0
    6.9150   -1.0768   -2.0705 H   0  0  0  0  0  0  0  0  0  0  0  0
    5.7169   -0.8943   -3.4066 H   0  0  0  0  0  0  0  0  0  0  0  0
   -4.4424   -0.6517    0.8167 H   0  0  0  0  0  0  0  0  0  0  0  0
   -2.4463   -2.6168    4.6078 H   0  0  0  0  0  0  0  0  0  0  0  0
   -2.8709   -0.9766    5.2031 H   0  0  0  0  0  0  0  0  0  0  0  0
   -1.1728   -1.3793    4.8207 H   0  0  0  0  0  0  0  0  0  0  0  0
   -3.1271   -1.4277   -2.3401 H   0  0  0  0  0  0  0  0  0  0  0  0
   -5.5059   -1.6214   -2.9742 H   0  0  0  0  0  0  0  0  0  0  0  0
   -6.2563    2.2967   -1.3630 H   0  0  0  0  0  0  0  0  0  0  0  0
   -4.4778    3.6577   -0.6038 H   0  0  0  0  0  0  0  0  0  0  0  0
   -3.5311    2.6665    0.5193 H   0  0  0  0  0  0  0  0  0  0  0  0
   -2.8199    3.2308   -1.0193 H   0  0  0  0  0  0  0  0  0  0  0  0
  1  2  1  0
  2  3  1  0
  3  4  1  0
  4  5  1  0
  5  6  1  0
  6  7  1  0
  7  8  1  0
  7  9  1  0
  2 10  2  0
 10 11  1  0
 11 12  2  0
 12 13  1  0
 13 14  2  0
 14 15  1  0
 15 16  1  0
 12 17  1  0
 17 18  2  3
 18 19  1  0
 19 20  2  0
 20 21  1  0
 21 22  2  0
 22 23  1  0
 22 24  1  0
 24 25  2  0
 25 26  1  0
 17  1  1  0
 25 19  1  0
 15 11  1  0
  1 27  1  0
  3 28  1  0
  4 29  1  0
  4 30  1  0
  5 31  1  0
  5 32  1  0
  6 33  1  0
  6 34  1  0
  7 35  1  0
  8 36  1  0
  8 37  1  0
  8 38  1  0
  9 39  1  0
  9 40  1  0
  9 41  1  0
 13 42  1  0
 16 43  1  0
 16 44  1  0
 16 45  1  0
 20 46  1  0
 21 47  1  0
 24 48  1  0
 26 49  1  0
 26 50  1  0
 26 51  1  0
M  CHG  1   7   1
M  END
>  <ScrubInfo>  (3) 
{"isomerGroup": 0, "isomerId": 2, "confId": 0, "nr_conformers:": 1, "nr_isomers:": 9}

$$$$
_i3
     RDKit          3D

 51 53  0  0  0  0  0  0  0  0999 V2000
   -0.0429   -2.0159   -1.9163 N   0  0  0  0  0  0  0  0  0  0  0  0
    0.2624   -0.9110   -1.1501 C   0  0  0  0  0  0  0  0  0  0  0  0
    1.2667   -0.1228   -1.2694 N   0  0  0  0  0  0  0  0  0  0  0  0
    2.2761   -0.3000   -2.2958 C   0  0  0  0  0  0  0  0  0  0  0  0
    3.0201    1.0356   -2.4383 C   0  0  0  0  0  0  0  0  0  0  0  0
    3.5358    1.6049   -1.1093 C   0  0  0  0  0  0  0  0  0  0  0  0
    2.4040    1.9265   -0.1598 N   0  0  0  0  0  4  0  0  0  0  0  0
    1.6615    3.1848   -0.4781 C   0  0  0  0  0  0  0  0  0  0  0  0
    2.7988    1.8512    1.2789 C   0  0  0  0  0  0  0  0  0  0  0  0
   -0.5355   -0.5048   -0.0985 N   0  0  0  0  0  0  0  0  0  0  0  0
   -1.6269   -1.1587    0.1864 C   0  0  0  0  0  0  0  0  0  0  0  0
   -2.5285   -0.8617    1.1844 N   0  0  0  0  0  0  0  0  0  0  0  0
   -2.4108    0.3031    1.9771 C   0  0  0  0  0  0  0  0  0  0  0  0
   -3.3395    1.3412    1.7904 C   0  0  0  0  0  0  0  0  0  0  0  0
   -3.2139    2.5502    2.4778 C   0  0  0  0  0  0  0  0  0  0  0  0
   -2.1510    2.7338    3.3545 C   0  0  0  0  0  0  0  0  0  0  0  0
   -1.9567    4.3773    4.2662 Br  0  0  0  0  0  0  0  0  0  0  0  0
   -1.2213    1.7162    3.5599 C   0  0  0  0  0  0  0  0  0  0  0  0
   -1.3444    0.4904    2.8820 C   0  0  0  0  0  0  0  0  0  0  0  0
   -0.3233   -0.5819    3.1522 C   0  0  0  0  0  0  0  0  0  0  0  0
   -1.9883   -2.3237   -0.5911 C   0  0  0  0  0  0  0  0  0  0  0  0
   -3.0078   -3.2878   -0.5988 C   0  0  0  0  0  0  0  0  0  0  0  0
   -2.8468   -4.1870   -1.5794 N   0  0  0  0  0  0  0  0  0  0  0  0
   -1.7013   -3.8079   -2.1935 N   0  0  0  0  0  0  0  0  0  0  0  0
   -1.2184   -4.5821   -3.3094 C   0  0  0  0  0  0  0  0  0  0  0  0
   -1.1646   -2.6977   -1.6197 C   0  0  0  0  0  0  0  0  0  0  0  0
    0.5863   -2.2770   -2.6617 H   0  0  0  0  0  0  0  0  0  0  0  0
    2.9795   -1.0845   -1.9960 H   0  0  0  0  0  0  0  0  0  0  0  0
    1.8423   -0.5690   -3.2650 H   0  0  0  0  0  0  0  0  0  0  0  0
    3.8716    0.8886   -3.1133 H   0  0  0  0  0  0  0  0  0  0  0  0
    2.3627    1.7651   -2.9252 H   0  0  0  0  0  0  0  0  0  0  0  0
    4.1097    2.5253   -1.2605 H   0  0  0  0  0  0  0  0  0  0  0  0
    4.1793    0.8657   -0.6191 H   0  0  0  0  0  0  0  0  0  0  0  0
    1.7135    1.1524   -0.3028 H   0  0  0  0  0  0  0  0  0  0  0  0
    2.3441    4.0304   -0.3592 H   0  0  0  0  0  0  0  0  0  0  0  0
    1.2891    3.1255   -1.5028 H   0  0  0  0  0  0  0  0  0  0  0  0
    0.8167    3.2674    0.2115 H   0  0  0  0  0  0  0  0  0  0  0  0
    1.9064    2.0097    1.8904 H   0  0  0  0  0  0  0  0  0  0  0  0
    3.5489    2.6221    1.4737 H   0  0  0  0  0  0  0  0  0  0  0  0
    3.2026    0.8538    1.4724 H   0  0  0  0  0  0  0  0  0  0  0  0
   -3.4941   -1.0942    0.9805 H   0  0  0  0  0  0  0  0  0  0  0  0
   -4.1636    1.2248    1.0898 H   0  0  0  0  0  0  0  0  0  0  0  0
   -3.9445    3.3390    2.3161 H   0  0  0  0  0  0  0  0  0  0  0  0
   -0.4048    1.8665    4.2628 H   0  0  0  0  0  0  0  0  0  0  0  0
    0.5273   -0.4753    2.4726 H   0  0  0  0  0  0  0  0  0  0  0  0
    0.0466   -0.5126    4.1812 H   0  0  0  0  0  0  0  0  0  0  0  0
   -0.7517   -1.5830    3.0425 H   0  0  0  0  0  0  0  0  0  0  0  0
   -3.8625   -3.3903    0.0576 H   0  0  0  0  0  0  0  0  0  0  0  0
   -1.0062   -5.5952   -2.9586 H   0  0  0  0  0  0  0  0  0  0  0  0
   -1.9937   -4.5976   -4.0796 H   0  0  0  0  0  0  0  0  0  0  0  0
   -0.3089   -4.1295   -3.7096 H   0  0  0  0  0  0  0  0  0  0  0  0
  1  2  1  0
  2  3  2  3
  3  4  1  0
  4  5  1  0
  5  6  1  0
  6  7  1  0
  7  8  1  0
  7  9  1  0
  2 10  1  0
 10 11  2  0
 11 12  1  0
 12 13  1  0
 13 14  2  0
 14 15  1  0
 15 16  2  0
 16 17  1  0
 16 18  1  0
 18 19  2  0
 19 20  1  0
 11 21  1  0
 21 22  1  0
 22 23  2  0
 23 24  1  0
 24 25  1  0
 24 26  1  0
 26  1  1  0
 19 13  1  0
 26 21  2  0
  1 27  1  0
  4 28  1  0
  4 29  1  0
  5 30  1  0
  5 31  1  0
  6 32  1  0
  6 33  1  0
  7 34  1  0
  8 35  1  0
  8 36  1  0
  8 37  1  0
  9 38  1  0
  9 39  1  0
  9 40  1  0
 12 41  1  0
 14 42  1  0
 15 43  1  0
 18 44  1  0
 20 45  1  0
 20 46  1  0
 20 47  1  0
 22 48  1  0
 25 49  1  0
 25 50  1  0
 25 51  1  0
M  CHG  1   7   1
M  END
>  <ScrubInfo>  (4) 
{"isomerGroup": 0, "isomerId": 3, "confId": 0, "nr_conformers:": 1, "nr_isomers:": 9}

$$$$
_i4
     RDKit          3D

 51 53  0  0  0  0  0  0  0  0999 V2000
   -0.0052   -3.4329   -0.5780 N   0  0  0  0  0  0  0  0  0  0  0  0
    0.4318   -2.1346   -0.4227 C   0  0  0  0  0  0  0  0  0  0  0  0
    1.7849   -2.0805   -0.2032 N   0  0  0  0  0  0  0  0  0  0  0  0
    2.4946   -0.8154   -0.1488 C   0  0  0  0  0  0  0  0  0  0  0  0
    2.1597   -0.0481    1.1349 C   0  0  0  0  0  0  0  0  0  0  0  0
    1.6916    1.3789    0.8644 C   0  0  0  0  0  0  0  0  0  0  0  0
    2.8250    2.2876    0.4119 N   0  0  0  0  0  4  0  0  0  0  0  0
    3.7999    2.6237    1.5091 C   0  0  0  0  0  0  0  0  0  0  0  0
    2.2760    3.5501   -0.2070 C   0  0  0  0  0  0  0  0  0  0  0  0
   -0.3211   -1.0659   -0.4608 N   0  0  0  0  0  0  0  0  0  0  0  0
   -1.6894   -1.2202   -0.6735 C   0  0  0  0  0  0  0  0  0  0  0  0
   -2.5391   -0.2475   -0.7262 N   0  0  0  0  0  0  0  0  0  0  0  0
   -2.1107    1.0743   -0.5756 C   0  0  0  0  0  0  0  0  0  0  0  0
   -1.7727    1.8118   -1.7173 C   0  0  0  0  0  0  0  0  0  0  0  0
   -1.4524    3.1669   -1.6248 C   0  0  0  0  0  0  0  0  0  0  0  0
   -1.4773    3.7923   -0.3818 C   0  0  0  0  0  0  0  0  0  0  0  0
   -1.0550    5.6299   -0.2508 Br  0  0  0  0  0  0  0  0  0  0  0  0
   -1.8125    3.0757    0.7673 C   0  0  0  0  0  0  0  0  0  0  0  0
   -2.1386    1.7122    0.6790 C   0  0  0  0  0  0  0  0  0  0  0  0
   -2.5611    0.9597    1.9105 C   0  0  0  0  0  0  0  0  0  0  0  0
   -2.1889   -2.5604   -0.8277 C   0  0  0  0  0  0  0  0  0  0  0  0
   -3.4451   -3.1481   -1.0258 C   0  0  0  0  0  0  0  0  0  0  0  0
   -3.3728   -4.4874   -1.0800 N   0  0  0  0  0  0  0  0  0  0  0  0
   -2.0540   -4.7522   -0.9154 N   0  0  0  0  0  0  0  0  0  0  0  0
   -1.6105   -6.1231   -0.9265 C   0  0  0  0  0  0  0  0  0  0  0  0
   -1.3232   -3.6152   -0.7675 C   0  0  0  0  0  0  0  0  0  0  0  0
    0.6235   -4.1891   -0.3408 H   0  0  0  0  0  0  0  0  0  0  0  0
    2.3009   -2.8061   -0.6915 H   0  0  0  0  0  0  0  0  0  0  0  0
    3.5708   -1.0235   -0.1620 H   0  0  0  0  0  0  0  0  0  0  0  0
    2.2810   -0.2335   -1.0530 H   0  0  0  0  0  0  0  0  0  0  0  0
    3.0271   -0.0594    1.8028 H   0  0  0  0  0  0  0  0  0  0  0  0
    1.3633   -0.5562    1.6935 H   0  0  0  0  0  0  0  0  0  0  0  0
    0.9367    1.3894    0.0735 H   0  0  0  0  0  0  0  0  0  0  0  0
    1.2630    1.8303    1.7660 H   0  0  0  0  0  0  0  0  0  0  0  0
    3.3454    1.8163   -0.3369 H   0  0  0  0  0  0  0  0  0  0  0  0
    4.2906    1.7046    1.8338 H   0  0  0  0  0  0  0  0  0  0  0  0
    4.5500    3.3059    1.0997 H   0  0  0  0  0  0  0  0  0  0  0  0
    3.2541    3.0935    2.3316 H   0  0  0  0  0  0  0  0  0  0  0  0
    1.6477    3.2659   -1.0543 H   0  0  0  0  0  0  0  0  0  0  0  0
    1.7072    4.0877    0.5551 H   0  0  0  0  0  0  0  0  0  0  0  0
    3.1194    4.1486   -0.5616 H   0  0  0  0  0  0  0  0  0  0  0  0
   -1.8007    1.3275   -2.6910 H   0  0  0  0  0  0  0  0  0  0  0  0
   -1.2242    3.7244   -2.5296 H   0  0  0  0  0  0  0  0  0  0  0  0
   -1.8608    3.5824    1.7291 H   0  0  0  0  0  0  0  0  0  0  0  0
   -1.8941    0.1093    2.0843 H   0  0  0  0  0  0  0  0  0  0  0  0
   -3.5899    0.6014    1.8030 H   0  0  0  0  0  0  0  0  0  0  0  0
   -2.5212    1.5954    2.8013 H   0  0  0  0  0  0  0  0  0  0  0  0
   -4.4092   -2.6654   -1.1274 H   0  0  0  0  0  0  0  0  0  0  0  0
   -2.0565   -6.6351   -0.0704 H   0  0  0  0  0  0  0  0  0  0  0  0
   -1.9368   -6.5849   -1.8619 H   0  0  0  0  0  0  0  0  0  0  0  0
   -0.5213   -6.1612   -0.8571 H   0  0  0  0  0  0  0  0  0  0  0  0
  1  2  1  0
  2  3  1  0
  3  4  1  0
  4  5  1  0
  5  6  1  0
  6  7  1  0
  7  8  1  0
  7  9  1  0
  2 10  2  0
 10 11  1  0
 11 12  2  3
 12 13  1  0
 13 14  2  0
 14 15  1  0
 15 16  2  0
 16 17  1  0
 16 18  1  0
 18 19  2  0
 19 20  1  0
 11 21  1  0
 21 22  1  0
 22 23  2  0
 23 24  1  0
 24 25  1  0
 24 26  1  0
 26  1  1  0
 19 13  1  0
 26 21  2  0
  1 27  1  0
  3 28  1  0
  4 29  1  0
  4 30  1  0
  5 31  1  0
  5 32  1  0
  6 33  1  0
  6 34  1  0
  7 35  1  0
  8 36  1  0
  8 37  1  0
  8 38  1  0
  9 39  1  0
  9 40  1  0
  9 41  1  0
 14 42  1  0
 15 43  1  0
 18 44  1  0
 20 45  1  0
 20 46  1  0
 20 47  1  0
 22 48  1  0
 25 49  1  0
 25 50  1  0
 25 51  1  0
M  CHG  1   7   1
M  END
>  <ScrubInfo>  (5) 
{"isomerGroup": 0, "isomerId": 4, "confId": 0, "nr_conformers:": 1, "nr_isomers:": 9}

$$$$
_i5
     RDKit          3D

 51 53  0  0  0  0  0  0  0  0999 V2000
    2.0738   -2.3552   -1.4266 N   0  0  0  0  0  0  0  0  0  0  0  0
    2.6773   -1.2693   -0.8024 C   0  0  0  0  0  0  0  0  0  0  0  0
    1.8392   -0.2429   -0.5915 C   0  0  0  0  0  0  0  0  0  0  0  0
    1.8514    1.0811    0.0154 C   0  0  0  0  0  0  0  0  0  0  0  0
    2.8065    1.7557    0.5599 N   0  0  0  0  0  0  0  0  0  0  0  0
    4.1035    1.2361    0.6230 C   0  0  0  0  0  0  0  0  0  0  0  0
    4.9861    1.4794   -0.4376 C   0  0  0  0  0  0  0  0  0  0  0  0
    6.2903    0.9840   -0.4085 C   0  0  0  0  0  0  0  0  0  0  0  0
    6.7205    0.2525    0.6943 C   0  0  0  0  0  0  0  0  0  0  0  0
    8.4821   -0.4310    0.7360 Br  0  0  0  0  0  0  0  0  0  0  0  0
    5.8642    0.0244    1.7717 C   0  0  0  0  0  0  0  0  0  0  0  0
    4.5530    0.5274    1.7525 C   0  0  0  0  0  0  0  0  0  0  0  0
    3.6455    0.2942    2.9271 C   0  0  0  0  0  0  0  0  0  0  0  0
    0.6306    1.7034    0.0026 N   0  0  0  0  0  0  0  0  0  0  0  0
   -0.4336    1.1798   -0.5229 C   0  0  0  0  0  0  0  0  0  0  0  0
   -1.5570    1.9590   -0.4580 N   0  0  0  0  0  0  0  0  0  0  0  0
   -2.6561    1.8482   -1.3912 C   0  0  0  0  0  0  0  0  0  0  0  0
   -3.5904    0.6941   -1.0198 C   0  0  0  0  0  0  0  0  0  0  0  0
   -4.0831    0.8090    0.4197 C   0  0  0  0  0  0  0  0  0  0  0  0
   -4.9039   -0.4087    0.8131 N   0  0  0  0  0  4  0  0  0  0  0  0
   -5.0532   -0.4963    2.3106 C   0  0  0  0  0  0  0  0  0  0  0  0
   -6.2408   -0.4876    0.1319 C   0  0  0  0  0  0  0  0  0  0  0  0
   -0.5113   -0.0485   -1.1200 N   0  0  0  0  0  0  0  0  0  0  0  0
    0.5805   -0.7315   -1.1914 C   0  0  0  0  0  0  0  0  0  0  0  0
    0.7904   -1.9763   -1.7841 N   0  0  0  0  0  0  0  0  0  0  0  0
   -0.2460   -2.9834   -1.8612 C   0  0  0  0  0  0  0  0  0  0  0  0
    2.6525   -2.7715   -2.1620 H   0  0  0  0  0  0  0  0  0  0  0  0
    3.7258   -1.3421   -0.5516 H   0  0  0  0  0  0  0  0  0  0  0  0
    4.6524    2.0671   -1.2894 H   0  0  0  0  0  0  0  0  0  0  0  0
    6.9597    1.1824   -1.2414 H   0  0  0  0  0  0  0  0  0  0  0  0
    6.2194   -0.5341    2.6349 H   0  0  0  0  0  0  0  0  0  0  0  0
    3.2110    1.2387    3.2703 H   0  0  0  0  0  0  0  0  0  0  0  0
    2.8426   -0.3974    2.6533 H   0  0  0  0  0  0  0  0  0  0  0  0
    4.1894   -0.1394    3.7730 H   0  0  0  0  0  0  0  0  0  0  0  0
   -1.2682    2.9149   -0.2531 H   0  0  0  0  0  0  0  0  0  0  0  0
   -3.2249    2.7852   -1.3698 H   0  0  0  0  0  0  0  0  0  0  0  0
   -2.2858    1.7268   -2.4157 H   0  0  0  0  0  0  0  0  0  0  0  0
   -4.4360    0.7076   -1.7161 H   0  0  0  0  0  0  0  0  0  0  0  0
   -3.0847   -0.2674   -1.1611 H   0  0  0  0  0  0  0  0  0  0  0  0
   -3.2404    0.8435    1.1176 H   0  0  0  0  0  0  0  0  0  0  0  0
   -4.7102    1.6943    0.5722 H   0  0  0  0  0  0  0  0  0  0  0  0
   -4.3610   -1.2365    0.5323 H   0  0  0  0  0  0  0  0  0  0  0  0
   -5.6029    0.3829    2.6570 H   0  0  0  0  0  0  0  0  0  0  0  0
   -5.5950   -1.4165    2.5449 H   0  0  0  0  0  0  0  0  0  0  0  0
   -4.0535   -0.5357    2.7514 H   0  0  0  0  0  0  0  0  0  0  0  0
   -6.8095    0.4144    0.3725 H   0  0  0  0  0  0  0  0  0  0  0  0
   -6.0793   -0.5780   -0.9439 H   0  0  0  0  0  0  0  0  0  0  0  0
   -6.7558   -1.3811    0.4952 H   0  0  0  0  0  0  0  0  0  0  0  0
    0.0901   -3.8335   -2.4639 H   0  0  0  0  0  0  0  0  0  0  0  0
   -1.1457   -2.5750   -2.3325 H   0  0  0  0  0  0  0  0  0  0  0  0
   -0.5095   -3.3471   -0.8626 H   0  0  0  0  0  0  0  0  0  0  0  0
  1  2  1  0
  2  3  2  0
  3  4  1  0
  4  5  2  3
  5  6  1  0
  6  7  2  0
  7  8  1  0
  8  9  2  0
  9 10  1  0
  9 11  1  0
 11 12  2  0
 12 13  1  0
  4 14  1  0
 14 15  2  0
 15 16  1  0
 16 17  1  0
 17 18  1  0
 18 19  1  0
 19 20  1  0
 20 21  1  0
 20 22  1  0
 15 23  1  0
 23 24  2  0
 24 25  1  0
 25 26  1  0
 25  1  1  0
 24  3  1  0
 12  6  1  0
  1 27  1  0
  2 28  1  0
  7 29  1  0
  8 30  1  0
 11 31  1  0
 13 32  1  0
 13 33  1  0
 13 34  1  0
 16 35  1  0
 17 36  1  0
 17 37  1  0
 18 38  1  0
 18 39  1  0
 19 40  1  0
 19 41  1  0
 20 42  1  0
 21 43  1  0
 21 44  1  0
 21 45  1  0
 22 46  1  0
 22 47  1  0
 22 48  1  0
 26 49  1  0
 26 50  1  0
 26 51  1  0
M  CHG  1  20   1
M  END
>  <ScrubInfo>  (6) 
{"isomerGroup": 0, "isomerId": 5, "confId": 0, "nr_conformers:": 1, "nr_isomers:": 9}

$$$$
_i6
     RDKit          3D

 51 53  0  0  0  0  0  0  0  0999 V2000
    3.1353   -3.8506    0.7809 N   0  0  0  0  0  0  0  0  0  0  0  0
    3.2205   -2.4743    0.9524 C   0  0  0  0  0  0  0  0  0  0  0  0
    2.0949   -1.8373    0.6011 C   0  0  0  0  0  0  0  0  0  0  0  0
    1.5844   -0.4640    0.5403 C   0  0  0  0  0  0  0  0  0  0  0  0
    2.3885    0.5854    0.9412 N   0  0  0  0  0  0  0  0  0  0  0  0
    2.0265    1.9248    1.1996 C   0  0  0  0  0  0  0  0  0  0  0  0
    0.7106    2.2857    1.5335 C   0  0  0  0  0  0  0  0  0  0  0  0
    0.3521    3.6175    1.7584 C   0  0  0  0  0  0  0  0  0  0  0  0
    1.3090    4.6157    1.6356 C   0  0  0  0  0  0  0  0  0  0  0  0
    0.8273    6.4181    1.9328 Br  0  0  0  0  0  0  0  0  0  0  0  0
    2.6187    4.2931    1.2925 C   0  0  0  0  0  0  0  0  0  0  0  0
    2.9881    2.9541    1.0643 C   0  0  0  0  0  0  0  0  0  0  0  0
    4.4152    2.6618    0.6799 C   0  0  0  0  0  0  0  0  0  0  0  0
    0.3755   -0.3019    0.0739 N   0  0  0  0  0  0  0  0  0  0  0  0
   -0.3376   -1.3944   -0.3493 C   0  0  0  0  0  0  0  0  0  0  0  0
   -1.4590   -1.0602   -0.8900 N   0  0  0  0  0  0  0  0  0  0  0  0
   -2.3350   -2.1227   -1.3833 C   0  0  0  0  0  0  0  0  0  0  0  0
   -3.4018   -1.4801   -2.2780 C   0  0  0  0  0  0  0  0  0  0  0  0
   -4.1730   -0.3479   -1.5942 C   0  0  0  0  0  0  0  0  0  0  0  0
   -3.2621    0.8053   -1.2405 N   0  0  0  0  0  4  0  0  0  0  0  0
   -3.7339    1.5851   -0.0575 C   0  0  0  0  0  0  0  0  0  0  0  0
   -2.9029    1.6842   -2.3963 C   0  0  0  0  0  0  0  0  0  0  0  0
    0.0069   -2.7145   -0.2437 N   0  0  0  0  0  0  0  0  0  0  0  0
    1.1868   -2.9453    0.2210 C   0  0  0  0  0  0  0  0  0  0  0  0
    1.8243   -4.1639    0.4443 N   0  0  0  0  0  0  0  0  0  0  0  0
    1.5682   -5.3210   -0.3933 C   0  0  0  0  0  0  0  0  0  0  0  0
    3.5556   -4.3966    1.5384 H   0  0  0  0  0  0  0  0  0  0  0  0
    4.1378   -2.0570    1.3418 H   0  0  0  0  0  0  0  0  0  0  0  0
    3.3623    0.3844    1.1301 H   0  0  0  0  0  0  0  0  0  0  0  0
   -0.0531    1.5240    1.6616 H   0  0  0  0  0  0  0  0  0  0  0  0
   -0.6685    3.8607    2.0387 H   0  0  0  0  0  0  0  0  0  0  0  0
    3.3589    5.0855    1.1970 H   0  0  0  0  0  0  0  0  0  0  0  0
    4.9114    2.0968    1.4754 H   0  0  0  0  0  0  0  0  0  0  0  0
    4.4498    2.0896   -0.2529 H   0  0  0  0  0  0  0  0  0  0  0  0
    4.9868    3.5818    0.5175 H   0  0  0  0  0  0  0  0  0  0  0  0
   -1.7902   -2.8656   -1.9776 H   0  0  0  0  0  0  0  0  0  0  0  0
   -2.8199   -2.6291   -0.5406 H   0  0  0  0  0  0  0  0  0  0  0  0
   -2.9324   -1.1141   -3.1981 H   0  0  0  0  0  0  0  0  0  0  0  0
   -4.1137   -2.2569   -2.5814 H   0  0  0  0  0  0  0  0  0  0  0  0
   -4.9692    0.0450   -2.2353 H   0  0  0  0  0  0  0  0  0  0  0  0
   -4.6204   -0.7159   -0.6640 H   0  0  0  0  0  0  0  0  0  0  0  0
   -2.3685    0.3468   -0.9474 H   0  0  0  0  0  0  0  0  0  0  0  0
   -4.6889    2.0540   -0.3089 H   0  0  0  0  0  0  0  0  0  0  0  0
   -2.9786    2.3387    0.1817 H   0  0  0  0  0  0  0  0  0  0  0  0
   -3.8446    0.8977    0.7854 H   0  0  0  0  0  0  0  0  0  0  0  0
   -3.8118    2.1729   -2.7568 H   0  0  0  0  0  0  0  0  0  0  0  0
   -2.1759    2.4238   -2.0495 H   0  0  0  0  0  0  0  0  0  0  0  0
   -2.4524    1.0716   -3.1798 H   0  0  0  0  0  0  0  0  0  0  0  0
    1.9184   -5.1453   -1.4157 H   0  0  0  0  0  0  0  0  0  0  0  0
    2.0827   -6.2013    0.0053 H   0  0  0  0  0  0  0  0  0  0  0  0
    0.4969   -5.5443   -0.4232 H   0  0  0  0  0  0  0  0  0  0  0  0
  1  2  1  0
  2  3  2  0
  3  4  1  0
  4  5  1  0
  5  6  1  0
  6  7  2  0
  7  8  1  0
  8  9  2  0
  9 10  1  0
  9 11  1  0
 11 12  2  0
 12 13  1  0
  4 14  2  0
 14 15  1  0
 15 16  2  3
 16 17  1  0
 17 18  1  0
 18 19  1  0
 19 20  1  0
 20 21  1  0
 20 22  1  0
 15 23  1  0
 23 24  2  0
 24 25  1  0
 25 26  1  0
 25  1  1  0
 24  3  1  0
 12  6  1  0
  1 27  1  0
  2 28  1  0
  5 29  1  0
  7 30  1  0
  8 31  1  0
 11 32  1  0
 13 33  1  0
 13 34  1  0
 13 35  1  0
 17 36  1  0
 17 37  1  0
 18 38  1  0
 18 39  1  0
 19 40  1  0
 19 41  1  0
 20 42  1  0
 21 43  1  0
 21 44  1  0
 21 45  1  0
 22 46  1  0
 22 47  1  0
 22 48  1  0
 26 49  1  0
 26 50  1  0
 26 51  1  0
M  CHG  1  20   1
M  END
>  <ScrubInfo>  (7) 
{"isomerGroup": 0, "isomerId": 6, "confId": 0, "nr_conformers:": 1, "nr_isomers:": 9}

$$$$
_i7
     RDKit          3D

 51 53  0  0  0  0  0  0  0  0999 V2000
    2.1371   -2.8712   -0.9520 N   0  0  0  0  0  0  0  0  0  0  0  0
    2.6427   -1.7143   -0.3752 C   0  0  0  0  0  0  0  0  0  0  0  0
    1.7538   -0.7125   -0.3268 C   0  0  0  0  0  0  0  0  0  0  0  0
    1.6573    0.6976    0.0955 C   0  0  0  0  0  0  0  0  0  0  0  0
    2.5478    1.4558    0.6615 N   0  0  0  0  0  0  0  0  0  0  0  0
    3.8236    0.9630    0.9612 C   0  0  0  0  0  0  0  0  0  0  0  0
    4.0488    0.3777    2.2139 C   0  0  0  0  0  0  0  0  0  0  0  0
    5.3090   -0.1156    2.5544 C   0  0  0  0  0  0  0  0  0  0  0  0
    6.3548   -0.0116    1.6422 C   0  0  0  0  0  0  0  0  0  0  0  0
    8.0610   -0.6880    2.0928 Br  0  0  0  0  0  0  0  0  0  0  0  0
    6.1549    0.5917    0.4006 C   0  0  0  0  0  0  0  0  0  0  0  0
    4.8915    1.0991    0.0551 C   0  0  0  0  0  0  0  0  0  0  0  0
    4.6932    1.7586   -1.2807 C   0  0  0  0  0  0  0  0  0  0  0  0
    0.4285    1.2369   -0.1768 N   0  0  0  0  0  0  0  0  0  0  0  0
   -0.6320    0.6215   -0.7762 C   0  0  0  0  0  0  0  0  0  0  0  0
   -1.7064    1.3088   -0.9980 N   0  0  0  0  0  0  0  0  0  0  0  0
   -2.8195    0.6718   -1.7000 C   0  0  0  0  0  0  0  0  0  0  0  0
   -3.7981    0.0769   -0.6914 C   0  0  0  0  0  0  0  0  0  0  0  0
   -4.3359    1.1536    0.2448 C   0  0  0  0  0  0  0  0  0  0  0  0
   -5.4148    0.5891    1.1551 N   0  0  0  0  0  4  0  0  0  0  0  0
   -4.8760   -0.3531    2.1973 C   0  0  0  0  0  0  0  0  0  0  0  0
   -6.2169    1.6935    1.7903 C   0  0  0  0  0  0  0  0  0  0  0  0
   -0.5942   -0.7123   -1.1167 N   0  0  0  0  0  0  0  0  0  0  0  0
    0.5181   -1.3500   -0.9091 C   0  0  0  0  0  0  0  0  0  0  0  0
    0.7797   -2.6967   -1.1762 N   0  0  0  0  0  0  0  0  0  0  0  0
    0.1776   -3.3625   -2.3181 C   0  0  0  0  0  0  0  0  0  0  0  0
    2.4263   -3.7334   -0.4832 H   0  0  0  0  0  0  0  0  0  0  0  0
    3.6678   -1.7196   -0.0341 H   0  0  0  0  0  0  0  0  0  0  0  0
    3.2346    0.3110    2.9305 H   0  0  0  0  0  0  0  0  0  0  0  0
    5.4648   -0.5685    3.5299 H   0  0  0  0  0  0  0  0  0  0  0  0
    6.9848    0.6787   -0.2977 H   0  0  0  0  0  0  0  0  0  0  0  0
    4.0842    1.1217   -1.9298 H   0  0  0  0  0  0  0  0  0  0  0  0
    4.2032    2.7304   -1.1612 H   0  0  0  0  0  0  0  0  0  0  0  0
    5.6493    1.9380   -1.7838 H   0  0  0  0  0  0  0  0  0  0  0  0
    0.3258    2.2217    0.0186 H   0  0  0  0  0  0  0  0  0  0  0  0
   -3.3271    1.4404   -2.2951 H   0  0  0  0  0  0  0  0  0  0  0  0
   -2.4982   -0.0893   -2.4207 H   0  0  0  0  0  0  0  0  0  0  0  0
   -4.6253   -0.3943   -1.2353 H   0  0  0  0  0  0  0  0  0  0  0  0
   -3.2946   -0.7108   -0.1213 H   0  0  0  0  0  0  0  0  0  0  0  0
   -3.5614    1.5839    0.8887 H   0  0  0  0  0  0  0  0  0  0  0  0
   -4.8033    1.9552   -0.3382 H   0  0  0  0  0  0  0  0  0  0  0  0
   -6.0660    0.0548    0.5654 H   0  0  0  0  0  0  0  0  0  0  0  0
   -4.1300    0.1761    2.7961 H   0  0  0  0  0  0  0  0  0  0  0  0
   -4.4396   -1.2182    1.6946 H   0  0  0  0  0  0  0  0  0  0  0  0
   -5.7116   -0.6835    2.8204 H   0  0  0  0  0  0  0  0  0  0  0  0
   -5.5501    2.2940    2.4148 H   0  0  0  0  0  0  0  0  0  0  0  0
   -6.6580    2.2964    0.9921 H   0  0  0  0  0  0  0  0  0  0  0  0
   -7.0104    1.2372    2.3880 H   0  0  0  0  0  0  0  0  0  0  0  0
    0.4338   -4.4270   -2.3167 H   0  0  0  0  0  0  0  0  0  0  0  0
    0.5290   -2.9205   -3.2563 H   0  0  0  0  0  0  0  0  0  0  0  0
   -0.9134   -3.2817   -2.2791 H   0  0  0  0  0  0  0  0  0  0  0  0
  1  2  1  0
  2  3  2  0
  3  4  1  0
  4  5  2  3
  5  6  1  0
  6  7  2  0
  7  8  1  0
  8  9  2  0
  9 10  1  0
  9 11  1  0
 11 12  2  0
 12 13  1  0
  4 14  1  0
 14 15  1  0
 15 16  2  3
 16 17  1  0
 17 18  1  0
 18 19  1  0
 19 20  1  0
 20 21  1  0
 20 22  1  0
 15 23  1  0
 23 24  2  0
 24 25  1  0
 25 26  1  0
 25  1  1  0
 24  3  1  0
 12  6  1  0
  1 27  1  0
  2 28  1  0
  7 29  1  0
  8 30  1  0
 11 31  1  0
 13 32  1  0
 13 33  1  0
 13 34  1  0
 14 35  1  0
 17 36  1  0
 17 37  1  0
 18 38  1  0
 18 39  1  0
 19 40  1  0
 19 41  1  0
 20 42  1  0
 21 43  1  0
 21 44  1  0
 21 45  1  0
 22 46  1  0
 22 47  1  0
 22 48  1  0
 26 49  1  0
 26 50  1  0
 26 51  1  0
M  CHG  1  20   1
M  END
>  <ScrubInfo>  (8) 
{"isomerGroup": 0, "isomerId": 7, "confId": 0, "nr_conformers:": 1, "nr_isomers:": 9}

$$$$
_i8
     RDKit          3D

 51 53  0  0  0  0  0  0  0  0999 V2000
    0.1729   -0.9869   -0.9528 N   0  0  0  0  0  0  0  0  0  0  0  0
    0.4716    0.2726   -0.4596 C   0  0  0  0  0  0  0  0  0  0  0  0
    1.6320    0.8235   -0.3343 N   0  0  0  0  0  0  0  0  0  0  0  0
    2.8273    0.1055   -0.7419 C   0  0  0  0  0  0  0  0  0  0  0  0
    3.9758    1.1201   -0.7549 C   0  0  0  0  0  0  0  0  0  0  0  0
    5.3479    0.4610   -0.8477 C   0  0  0  0  0  0  0  0  0  0  0  0
    6.0882    0.4175    0.4761 N   0  0  0  0  0  4  0  0  0  0  0  0
    5.3899   -0.3550    1.5588 C   0  0  0  0  0  0  0  0  0  0  0  0
    6.5480    1.7700    0.9566 C   0  0  0  0  0  0  0  0  0  0  0  0
   -0.6397    0.9811   -0.0614 N   0  0  0  0  0  0  0  0  0  0  0  0
   -1.9820    0.6684   -0.0664 C   0  0  0  0  0  0  0  0  0  0  0  0
   -2.8635    1.5177    0.3666 N   0  0  0  0  0  0  0  0  0  0  0  0
   -4.2337    1.2398    0.3675 C   0  0  0  0  0  0  0  0  0  0  0  0
   -4.9973    1.5837   -0.7557 C   0  0  0  0  0  0  0  0  0  0  0  0
   -6.3721    1.3454   -0.7839 C   0  0  0  0  0  0  0  0  0  0  0  0
   -6.9911    0.7737    0.3234 C   0  0  0  0  0  0  0  0  0  0  0  0
   -8.8515    0.4419    0.2896 Br  0  0  0  0  0  0  0  0  0  0  0  0
   -6.2508    0.4492    1.4603 C   0  0  0  0  0  0  0  0  0  0  0  0
   -4.8682    0.6940    1.4989 C   0  0  0  0  0  0  0  0  0  0  0  0
   -4.0847    0.3506    2.7340 C   0  0  0  0  0  0  0  0  0  0  0  0
   -2.1978   -0.6659   -0.5960 C   0  0  0  0  0  0  0  0  0  0  0  0
   -3.2932   -1.5167   -0.8309 C   0  0  0  0  0  0  0  0  0  0  0  0
   -2.9294   -2.6969   -1.3518 N   0  0  0  0  0  0  0  0  0  0  0  0
   -1.5896   -2.6040   -1.4675 N   0  0  0  0  0  0  0  0  0  0  0  0
   -0.8608   -3.7212   -2.0136 C   0  0  0  0  0  0  0  0  0  0  0  0
   -1.1132   -1.4116   -1.0113 C   0  0  0  0  0  0  0  0  0  0  0  0
    0.9363   -1.5627   -1.2750 H   0  0  0  0  0  0  0  0  0  0  0  0
    3.0306   -0.7005   -0.0297 H   0  0  0  0  0  0  0  0  0  0  0  0
    2.7220   -0.3290   -1.7427 H   0  0  0  0  0  0  0  0  0  0  0  0
    3.8376    1.7610   -1.6359 H   0  0  0  0  0  0  0  0  0  0  0  0
    3.9013    1.7888    0.1091 H   0  0  0  0  0  0  0  0  0  0  0  0
    5.9955    1.0202   -1.5323 H   0  0  0  0  0  0  0  0  0  0  0  0
    5.2920   -0.5709   -1.2119 H   0  0  0  0  0  0  0  0  0  0  0  0
    6.9541   -0.1028    0.2805 H   0  0  0  0  0  0  0  0  0  0  0  0
    4.4969    0.1923    1.8696 H   0  0  0  0  0  0  0  0  0  0  0  0
    5.1346   -1.3404    1.1610 H   0  0  0  0  0  0  0  0  0  0  0  0
    6.0850   -0.4630    2.3960 H   0  0  0  0  0  0  0  0  0  0  0  0
    7.2321    1.6108    1.7946 H   0  0  0  0  0  0  0  0  0  0  0  0
    5.6819    2.3535    1.2757 H   0  0  0  0  0  0  0  0  0  0  0  0
    7.0764    2.2625    0.1364 H   0  0  0  0  0  0  0  0  0  0  0  0
   -0.4458    1.9071    0.2920 H   0  0  0  0  0  0  0  0  0  0  0  0
   -4.5145    2.0416   -1.6152 H   0  0  0  0  0  0  0  0  0  0  0  0
   -6.9464    1.6125   -1.6670 H   0  0  0  0  0  0  0  0  0  0  0  0
   -6.7499    0.0127    2.3227 H   0  0  0  0  0  0  0  0  0  0  0  0
   -4.7456    0.0902    3.5675 H   0  0  0  0  0  0  0  0  0  0  0  0
   -3.4793    1.2045    3.0553 H   0  0  0  0  0  0  0  0  0  0  0  0
   -3.4314   -0.5061    2.5412 H   0  0  0  0  0  0  0  0  0  0  0  0
   -4.3464   -1.3494   -0.6495 H   0  0  0  0  0  0  0  0  0  0  0  0
   -1.4415   -4.1585   -2.8301 H   0  0  0  0  0  0  0  0  0  0  0  0
    0.1023   -3.3787   -2.3983 H   0  0  0  0  0  0  0  0  0  0  0  0
   -0.7127   -4.4531   -1.2160 H   0  0  0  0  0  0  0  0  0  0  0  0
  1  2  1  0
  2  3  2  3
  3  4  1  0
  4  5  1  0
  5  6  1  0
  6  7  1  0
  7  8  1  0
  7  9  1  0
  2 10  1  0
 10 11  1  0
 11 12  2  3
 12 13  1  0
 13 14  2  0
 14 15  1  0
 15 16  2  0
 16 17  1  0
 16 18  1  0
 18 19  2  0
 19 20  1  0
 11 21  1  0
 21 22  1  0
 22 23  2  0
 23 24  1  0
 24 25  1  0
 24 26  1  0
 26  1  1  0
 19 13  1  0
 26 21  2  0
  1 27  1  0
  4 28  1  0
  4 29  1  0
  5 30  1  0
  5 31  1  0
  6 32  1  0
  6 33  1  0
  7 34  1  0
  8 35  1  0
  8 36  1  0
  8 37  1  0
  9 38  1  0
  9 39  1  0
  9 40  1  0
 10 41  1  0
 14 42  1  0
 15 43  1  0
 18 44  1  0
 20 45  1  0
 20 46  1  0
 20 47  1  0
 22 48  1  0
 25 49  1  0
 25 50  1  0
 25 51  1  0
M  CHG  1   7   1
M  END
>  <ScrubInfo>  (9) 
{"isomerGroup": 0, "isomerId": 8, "confId": 0, "nr_conformers:": 1, "nr_isomers:": 9}

$$$$
