REMARK SMILES CC(=O)NCCNc1nc(Nc2ccc(C)cc2O)c2cnn(C)c2n1
REMARK SMILES IDX 8 1 9 2 10 3 20 4 21 5 22 6 23 7 24 8 25 9 26 10 7 11 6 13
REMARK SMILES IDX 5 14 4 15 2 16 1 17 3 18 11 20 12 22 13 23 18 24 14 25 17 26
REMARK SMILES IDX 15 27 16 28 19 29
REMARK H PARENT 7 12 4 19 11 21 19 30
ROOT
ATOM      1  C   UNL     1       1.612   2.356   0.836  1.00  0.00     0.226 A 
ATOM      2  N   UNL     1       0.792   1.418   1.350  1.00  0.00    -0.195 NA
ATOM      3  C   UNL     1      -0.401   1.153   0.754  1.00  0.00     0.147 A 
ATOM      4  C   UNL     1      -0.740   1.893  -0.381  1.00  0.00     0.082 A 
ATOM      5  C   UNL     1      -1.814   2.013  -1.285  1.00  0.00     0.149 A 
ATOM      6  N   UNL     1      -1.590   2.921  -2.243  1.00  0.00    -0.179 NA
ATOM      7  N   UNL     1      -0.360   3.394  -1.935  1.00  0.00    -0.250 N 
ATOM      8  C   UNL     1       0.228   4.425  -2.753  1.00  0.00     0.176 C 
ATOM      9  C   UNL     1       0.190   2.811  -0.826  1.00  0.00     0.165 A 
ATOM     10  N   UNL     1       1.382   3.074  -0.270  1.00  0.00    -0.193 NA
ENDROOT
BRANCH   1  11
ATOM     11  N   UNL     1       2.814   2.626   1.455  1.00  0.00    -0.352 N 
ATOM     12  H   UNL     1       3.426   3.080   0.788  1.00  0.00     0.163 HD
BRANCH  11  13
ATOM     13  C   UNL     1       3.416   1.656   2.357  1.00  0.00     0.137 C 
BRANCH  13  14
ATOM     14  C   UNL     1       3.983   0.425   1.637  1.00  0.00     0.137 C 
BRANCH  14  15
ATOM     15  N   UNL     1       2.969  -0.551   1.286  1.00  0.00    -0.355 N 
ATOM     16  C   UNL     1       3.313  -1.790   0.806  1.00  0.00     0.216 C 
ATOM     17  C   UNL     1       2.141  -2.640   0.403  1.00  0.00     0.114 C 
ATOM     18  O   UNL     1       4.472  -2.181   0.702  1.00  0.00    -0.275 OA
ATOM     19  H   UNL     1       2.026  -0.206   1.119  1.00  0.00     0.163 HD
ENDBRANCH  14  15
ENDBRANCH  13  14
ENDBRANCH  11  13
ENDBRANCH   1  11
BRANCH   3  20
ATOM     20  N   UNL     1      -1.216   0.185   1.361  1.00  0.00    -0.336 N 
ATOM     21  H   UNL     1      -0.674  -0.220   2.119  1.00  0.00     0.168 HD
BRANCH  20  22
ATOM     22  C   UNL     1      -1.982  -0.814   0.715  1.00  0.00     0.082 A 
ATOM     23  C   UNL     1      -3.135  -1.267   1.369  1.00  0.00     0.030 A 
ATOM     24  C   UNL     1      -1.603  -1.458  -0.473  1.00  0.00     0.139 A 
ATOM     25  C   UNL     1      -3.921  -2.286   0.824  1.00  0.00     0.006 A 
ATOM     26  C   UNL     1      -2.386  -2.477  -1.025  1.00  0.00     0.051 A 
ATOM     27  C   UNL     1      -3.549  -2.904  -0.374  1.00  0.00    -0.047 A 
ATOM     28  C   UNL     1      -4.410  -3.974  -0.977  1.00  0.00     0.044 C 
BRANCH  24  29
ATOM     29  O   UNL     1      -0.437  -1.104  -1.098  1.00  0.00    -0.506 OA
ATOM     30  H   UNL     1      -0.395  -1.547  -1.962  1.00  0.00     0.293 HD
ENDBRANCH  24  29
ENDBRANCH  20  22
ENDBRANCH   3  20
TORSDOF 7
