_i0
     RDKit          3D

 47 49  0  0  0  0  0  0  0  0999 V2000
    2.1406   -2.6401    0.4028 C   0  0  0  0  0  0  0  0  0  0  0  0
    3.3133   -1.7900    0.8060 C   0  0  0  0  0  0  0  0  0  0  0  0
    4.4717   -2.1806    0.7023 O   0  0  0  0  0  0  0  0  0  0  0  0
    2.9689   -0.5506    1.2861 N   0  0  0  0  0  0  0  0  0  0  0  0
    3.9835    0.4248    1.6367 C   0  0  0  0  0  0  0  0  0  0  0  0
    3.4159    1.6560    2.3571 C   0  0  0  0  0  0  0  0  0  0  0  0
    2.8137    2.6256    1.4546 N   0  0  0  0  0  0  0  0  0  0  0  0
    1.6121    2.3559    0.8355 C   0  0  0  0  0  0  0  0  0  0  0  0
    0.7918    1.4176    1.3503 N   0  0  0  0  0  0  0  0  0  0  0  0
   -0.4009    1.1534    0.7536 C   0  0  0  0  0  0  0  0  0  0  0  0
   -1.2163    0.1847    1.3607 N   0  0  0  0  0  0  0  0  0  0  0  0
   -1.9820   -0.8135    0.7154 C   0  0  0  0  0  0  0  0  0  0  0  0
   -3.1354   -1.2668    1.3690 C   0  0  0  0  0  0  0  0  0  0  0  0
   -3.9214   -2.2863    0.8240 C   0  0  0  0  0  0  0  0  0  0  0  0
   -3.5491   -2.9035   -0.3739 C   0  0  0  0  0  0  0  0  0  0  0  0
   -4.4105   -3.9738   -0.9768 C   0  0  0  0  0  0  0  0  0  0  0  0
   -2.3856   -2.4773   -1.0249 C   0  0  0  0  0  0  0  0  0  0  0  0
   -1.6035   -1.4578   -0.4734 C   0  0  0  0  0  0  0  0  0  0  0  0
   -0.4369   -1.1037   -1.0981 O   0  0  0  0  0  0  0  0  0  0  0  0
   -0.7396    1.8931   -0.3807 C   0  0  0  0  0  0  0  0  0  0  0  0
   -1.8142    2.0131   -1.2852 C   0  0  0  0  0  0  0  0  0  0  0  0
   -1.5903    2.9214   -2.2433 N   0  0  0  0  0  0  0  0  0  0  0  0
   -0.3598    3.3942   -1.9349 N   0  0  0  0  0  0  0  0  0  0  0  0
    0.2280    4.4246   -2.7530 C   0  0  0  0  0  0  0  0  0  0  0  0
    0.1895    2.8109   -0.8257 C   0  0  0  0  0  0  0  0  0  0  0  0
    1.3816    3.0744   -0.2699 N   0  0  0  0  0  0  0  0  0  0  0  0
    1.9918   -2.5590   -0.6766 H   0  0  0  0  0  0  0  0  0  0  0  0
    2.3436   -3.6814    0.6683 H   0  0  0  0  0  0  0  0  0  0  0  0
    1.2306   -2.3300    0.9235 H   0  0  0  0  0  0  0  0  0  0  0  0
    2.0259   -0.2057    1.1185 H   0  0  0  0  0  0  0  0  0  0  0  0
    4.5077    0.7111    0.7176 H   0  0  0  0  0  0  0  0  0  0  0  0
    4.7074   -0.0767    2.2895 H   0  0  0  0  0  0  0  0  0  0  0  0
    2.7139    1.3630    3.1474 H   0  0  0  0  0  0  0  0  0  0  0  0
    4.2477    2.1660    2.8569 H   0  0  0  0  0  0  0  0  0  0  0  0
    3.4262    3.0801    0.7882 H   0  0  0  0  0  0  0  0  0  0  0  0
   -0.6737   -0.2202    2.1194 H   0  0  0  0  0  0  0  0  0  0  0  0
   -3.4415   -0.8054    2.3055 H   0  0  0  0  0  0  0  0  0  0  0  0
   -4.8252   -2.5949    1.3454 H   0  0  0  0  0  0  0  0  0  0  0  0
   -4.9418   -4.5328   -0.1994 H   0  0  0  0  0  0  0  0  0  0  0  0
   -5.1440   -3.5257   -1.6541 H   0  0  0  0  0  0  0  0  0  0  0  0
   -3.8041   -4.6936   -1.5366 H   0  0  0  0  0  0  0  0  0  0  0  0
   -2.0898   -2.9576   -1.9537 H   0  0  0  0  0  0  0  0  0  0  0  0
   -0.3951   -1.5470   -1.9615 H   0  0  0  0  0  0  0  0  0  0  0  0
   -2.7507    1.4704   -1.2849 H   0  0  0  0  0  0  0  0  0  0  0  0
    1.2267    4.6709   -2.3858 H   0  0  0  0  0  0  0  0  0  0  0  0
   -0.4133    5.3084   -2.7054 H   0  0  0  0  0  0  0  0  0  0  0  0
    0.2927    4.0542   -3.7792 H   0  0  0  0  0  0  0  0  0  0  0  0
  1  2  1  0
  2  3  2  0
  2  4  1  0
  4  5  1  0
  5  6  1  0
  6  7  1  0
  7  8  1  0
  8  9  2  0
  9 10  1  0
 10 11  1  0
 11 12  1  0
 12 13  2  0
 13 14  1  0
 14 15  2  0
 15 16  1  0
 15 17  1  0
 17 18  2  0
 18 19  1  0
 10 20  2  0
 20 21  1  0
 21 22  2  0
 22 23  1  0
 23 24  1  0
 23 25  1  0
 25 26  2  0
 26  8  1  0
 18 12  1  0
 25 20  1  0
  1 27  1  0
  1 28  1  0
  1 29  1  0
  4 30  1  0
  5 31  1  0
  5 32  1  0
  6 33  1  0
  6 34  1  0
  7 35  1  0
 11 36  1  0
 13 37  1  0
 14 38  1  0
 16 39  1  0
 16 40  1  0
 16 41  1  0
 17 42  1  0
 19 43  1  0
 21 44  1  0
 24 45  1  0
 24 46  1  0
 24 47  1  0
M  END
>  <ScrubInfo>  (1) 
{"isomerGroup": 0, "isomerId": 0, "confId": 0, "nr_conformers:": 1, "nr_isomers:": 9}

$$$$
_i1
     RDKit          3D

 47 49  0  0  0  0  0  0  0  0999 V2000
   -0.5508   -0.2318    0.2160 N   0  0  0  0  0  0  0  0  0  0  0  0
   -1.5244   -1.2024    0.0992 C   0  0  0  0  0  0  0  0  0  0  0  0
   -2.8834   -0.9426    0.0298 N   0  0  0  0  0  0  0  0  0  0  0  0
   -3.6260    0.2598    0.0057 C   0  0  0  0  0  0  0  0  0  0  0  0
   -4.9498    0.1921    0.4834 C   0  0  0  0  0  0  0  0  0  0  0  0
   -5.7753    1.3205    0.5443 C   0  0  0  0  0  0  0  0  0  0  0  0
   -5.2956    2.5665    0.1423 C   0  0  0  0  0  0  0  0  0  0  0  0
   -6.1836    3.7746    0.1784 C   0  0  0  0  0  0  0  0  0  0  0  0
   -3.9894    2.6575   -0.3464 C   0  0  0  0  0  0  0  0  0  0  0  0
   -3.1683    1.5218   -0.4069 C   0  0  0  0  0  0  0  0  0  0  0  0
   -1.9072    1.6746   -0.9211 O   0  0  0  0  0  0  0  0  0  0  0  0
   -1.0465   -2.4551    0.0842 C   0  0  0  0  0  0  0  0  0  0  0  0
   -1.5744   -3.8196   -0.0250 C   0  0  0  0  0  0  0  0  0  0  0  0
   -0.6434   -4.7389    0.0030 N   0  0  0  0  0  0  0  0  0  0  0  0
    0.5635   -4.0415    0.1807 N   0  0  0  0  0  0  0  0  0  0  0  0
    1.8058   -4.7217   -0.0988 C   0  0  0  0  0  0  0  0  0  0  0  0
    0.4167   -2.6624    0.1772 C   0  0  0  0  0  0  0  0  0  0  0  0
    1.3076   -1.7314    0.2254 N   0  0  0  0  0  0  0  0  0  0  0  0
    0.8008   -0.4501    0.1905 C   0  0  0  0  0  0  0  0  0  0  0  0
    1.6011    0.5639    0.1268 N   0  0  0  0  0  0  0  0  0  0  0  0
    3.0369    0.2705    0.0857 C   0  0  0  0  0  0  0  0  0  0  0  0
    3.8072    1.5938    0.0378 C   0  0  0  0  0  0  0  0  0  0  0  0
    5.2417    1.4099    0.1728 N   0  0  0  0  0  0  0  0  0  0  0  0
    6.0269    1.0378   -0.8927 C   0  0  0  0  0  0  0  0  0  0  0  0
    7.4709    0.8038   -0.5379 C   0  0  0  0  0  0  0  0  0  0  0  0
    5.6086    0.8909   -2.0359 O   0  0  0  0  0  0  0  0  0  0  0  0
   -0.8583    0.7141    0.0193 H   0  0  0  0  0  0  0  0  0  0  0  0
   -3.4735   -1.7643    0.0818 H   0  0  0  0  0  0  0  0  0  0  0  0
   -5.3580   -0.7552    0.8294 H   0  0  0  0  0  0  0  0  0  0  0  0
   -6.7921    1.2155    0.9167 H   0  0  0  0  0  0  0  0  0  0  0  0
   -6.9207    3.6945    0.9844 H   0  0  0  0  0  0  0  0  0  0  0  0
   -6.7116    3.8794   -0.7743 H   0  0  0  0  0  0  0  0  0  0  0  0
   -5.5997    4.6826    0.3621 H   0  0  0  0  0  0  0  0  0  0  0  0
   -3.6148    3.6232   -0.6764 H   0  0  0  0  0  0  0  0  0  0  0  0
   -1.8395    2.5471   -1.3461 H   0  0  0  0  0  0  0  0  0  0  0  0
   -2.6497   -4.0060   -0.1382 H   0  0  0  0  0  0  0  0  0  0  0  0
    2.0179   -4.7026   -1.1724 H   0  0  0  0  0  0  0  0  0  0  0  0
    1.7569   -5.7659    0.2265 H   0  0  0  0  0  0  0  0  0  0  0  0
    2.6383   -4.2466    0.4299 H   0  0  0  0  0  0  0  0  0  0  0  0
    3.3418   -0.2849    0.9818 H   0  0  0  0  0  0  0  0  0  0  0  0
    3.2895   -0.3291   -0.7973 H   0  0  0  0  0  0  0  0  0  0  0  0
    3.5994    2.1168   -0.9029 H   0  0  0  0  0  0  0  0  0  0  0  0
    3.4927    2.2479    0.8585 H   0  0  0  0  0  0  0  0  0  0  0  0
    5.6202    1.3555    1.1085 H   0  0  0  0  0  0  0  0  0  0  0  0
    7.7181    1.2189    0.4432 H   0  0  0  0  0  0  0  0  0  0  0  0
    7.6675   -0.2715   -0.5300 H   0  0  0  0  0  0  0  0  0  0  0  0
    8.1058    1.2901   -1.2837 H   0  0  0  0  0  0  0  0  0  0  0  0
  1  2  1  0
  2  3  1  0
  3  4  1  0
  4  5  2  0
  5  6  1  0
  6  7  2  0
  7  8  1  0
  7  9  1  0
  9 10  2  0
 10 11  1  0
  2 12  2  0
 12 13  1  0
 13 14  2  0
 14 15  1  0
 15 16  1  0
 15 17  1  0
 17 18  2  0
 18 19  1  0
 19 20  2  3
 20 21  1  0
 21 22  1  0
 22 23  1  0
 23 24  1  0
 24 25  1  0
 24 26  2  0
 19  1  1  0
 10  4  1  0
 17 12  1  0
  1 27  1  0
  3 28  1  0
  5 29  1  0
  6 30  1  0
  8 31  1  0
  8 32  1  0
  8 33  1  0
  9 34  1  0
 11 35  1  0
 13 36  1  0
 16 37  1  0
 16 38  1  0
 16 39  1  0
 21 40  1  0
 21 41  1  0
 22 42  1  0
 22 43  1  0
 23 44  1  0
 25 45  1  0
 25 46  1  0
 25 47  1  0
M  END
>  <ScrubInfo>  (2) 
{"isomerGroup": 0, "isomerId": 1, "confId": 0, "nr_conformers:": 1, "nr_isomers:": 9}

$$$$
_i2
     RDKit          3D

 47 49  0  0  0  0  0  0  0  0999 V2000
   -0.0624    1.0346   -0.1890 N   0  0  0  0  0  0  0  0  0  0  0  0
    0.9124    1.9262   -0.5664 C   0  0  0  0  0  0  0  0  0  0  0  0
    1.1622    2.0120   -1.9070 N   0  0  0  0  0  0  0  0  0  0  0  0
    1.4260    0.8227   -2.7247 C   0  0  0  0  0  0  0  0  0  0  0  0
    2.7852    0.1840   -2.3822 C   0  0  0  0  0  0  0  0  0  0  0  0
    2.8470   -0.3605   -1.0368 N   0  0  0  0  0  0  0  0  0  0  0  0
    2.1926   -1.5307   -0.7260 C   0  0  0  0  0  0  0  0  0  0  0  0
    2.2222   -1.8946    0.7338 C   0  0  0  0  0  0  0  0  0  0  0  0
    1.6352   -2.2295   -1.5670 O   0  0  0  0  0  0  0  0  0  0  0  0
    1.6235    2.6477    0.2662 N   0  0  0  0  0  0  0  0  0  0  0  0
    1.2523    2.4169    1.5575 C   0  0  0  0  0  0  0  0  0  0  0  0
    0.2792    1.5531    2.0223 C   0  0  0  0  0  0  0  0  0  0  0  0
    0.3009    1.6866    3.4172 C   0  0  0  0  0  0  0  0  0  0  0  0
    1.2242    2.5668    3.8275 N   0  0  0  0  0  0  0  0  0  0  0  0
    1.7761    3.0122    2.6716 N   0  0  0  0  0  0  0  0  0  0  0  0
    2.8115    4.0129    2.7247 C   0  0  0  0  0  0  0  0  0  0  0  0
   -0.4899    0.7633    1.0911 C   0  0  0  0  0  0  0  0  0  0  0  0
   -1.3856   -0.0325    1.5654 N   0  0  0  0  0  0  0  0  0  0  0  0
   -2.1194   -0.8740    0.7085 C   0  0  0  0  0  0  0  0  0  0  0  0
   -2.1613   -2.2336    1.0292 C   0  0  0  0  0  0  0  0  0  0  0  0
   -2.9027   -3.1360    0.2603 C   0  0  0  0  0  0  0  0  0  0  0  0
   -3.6247   -2.6926   -0.8526 C   0  0  0  0  0  0  0  0  0  0  0  0
   -4.4421   -3.6576   -1.6596 C   0  0  0  0  0  0  0  0  0  0  0  0
   -3.6169   -1.3292   -1.1682 C   0  0  0  0  0  0  0  0  0  0  0  0
   -2.8709   -0.4362   -0.3938 C   0  0  0  0  0  0  0  0  0  0  0  0
   -2.8537    0.8896   -0.7434 O   0  0  0  0  0  0  0  0  0  0  0  0
   -0.6949    0.7293   -0.9140 H   0  0  0  0  0  0  0  0  0  0  0  0
    1.8706    2.7261   -2.0623 H   0  0  0  0  0  0  0  0  0  0  0  0
    0.6113    0.0978   -2.6243 H   0  0  0  0  0  0  0  0  0  0  0  0
    1.4418    1.1371   -3.7740 H   0  0  0  0  0  0  0  0  0  0  0  0
    2.9945   -0.6243   -3.0917 H   0  0  0  0  0  0  0  0  0  0  0  0
    3.5875    0.9253   -2.4624 H   0  0  0  0  0  0  0  0  0  0  0  0
    3.0402    0.2897   -0.2816 H   0  0  0  0  0  0  0  0  0  0  0  0
    1.2001   -2.0698    1.0791 H   0  0  0  0  0  0  0  0  0  0  0  0
    2.8161   -2.8033    0.8623 H   0  0  0  0  0  0  0  0  0  0  0  0
    2.6606   -1.0992    1.3426 H   0  0  0  0  0  0  0  0  0  0  0  0
   -0.3127    1.1791    4.1502 H   0  0  0  0  0  0  0  0  0  0  0  0
    2.4189    4.8874    3.2497 H   0  0  0  0  0  0  0  0  0  0  0  0
    3.6651    3.5948    3.2643 H   0  0  0  0  0  0  0  0  0  0  0  0
    3.1137    4.2950    1.7138 H   0  0  0  0  0  0  0  0  0  0  0  0
   -1.6108   -2.5930    1.8952 H   0  0  0  0  0  0  0  0  0  0  0  0
   -2.9105   -4.1872    0.5405 H   0  0  0  0  0  0  0  0  0  0  0  0
   -3.9888   -4.6544   -1.6534 H   0  0  0  0  0  0  0  0  0  0  0  0
   -5.4538   -3.7261   -1.2482 H   0  0  0  0  0  0  0  0  0  0  0  0
   -4.5054   -3.3367   -2.7047 H   0  0  0  0  0  0  0  0  0  0  0  0
   -4.1823   -0.9748   -2.0255 H   0  0  0  0  0  0  0  0  0  0  0  0
   -3.6821    1.0854   -1.2140 H   0  0  0  0  0  0  0  0  0  0  0  0
  1  2  1  0
  2  3  1  0
  3  4  1  0
  4  5  1  0
  5  6  1  0
  6  7  1  0
  7  8  1  0
  7  9  2  0
  2 10  2  0
 10 11  1  0
 11 12  2  0
 12 13  1  0
 13 14  2  0
 14 15  1  0
 15 16  1  0
 12 17  1  0
 17 18  2  3
 18 19  1  0
 19 20  2  0
 20 21  1  0
 21 22  2  0
 22 23  1  0
 22 24  1  0
 24 25  2  0
 25 26  1  0
 17  1  1  0
 25 19  1  0
 15 11  1  0
  1 27  1  0
  3 28  1  0
  4 29  1  0
  4 30  1  0
  5 31  1  0
  5 32  1  0
  6 33  1  0
  8 34  1  0
  8 35  1  0
  8 36  1  0
 13 37  1  0
 16 38  1  0
 16 39  1  0
 16 40  1  0
 20 41  1  0
 21 42  1  0
 23 43  1  0
 23 44  1  0
 23 45  1  0
 24 46  1  0
 26 47  1  0
M  END
>  <ScrubInfo>  (3) 
{"isomerGroup": 0, "isomerId": 2, "confId": 0, "nr_conformers:": 1, "nr_isomers:": 9}

$$$$
_i3
     RDKit          3D

 47 49  0  0  0  0  0  0  0  0999 V2000
    1.2996    0.5417   -0.1149 N   0  0  0  0  0  0  0  0  0  0  0  0
    1.0222   -0.6252    0.5808 C   0  0  0  0  0  0  0  0  0  0  0  0
    1.7604   -1.6728    0.6580 N   0  0  0  0  0  0  0  0  0  0  0  0
    3.0449   -1.7349   -0.0361 C   0  0  0  0  0  0  0  0  0  0  0  0
    4.1640   -1.2445    0.8922 C   0  0  0  0  0  0  0  0  0  0  0  0
    5.3217   -0.7034    0.1967 N   0  0  0  0  0  0  0  0  0  0  0  0
    6.0762   -1.4854   -0.6512 C   0  0  0  0  0  0  0  0  0  0  0  0
    7.3472   -0.8293   -1.1209 C   0  0  0  0  0  0  0  0  0  0  0  0
    5.7603   -2.6157   -1.0030 O   0  0  0  0  0  0  0  0  0  0  0  0
   -0.1552   -0.7649    1.3073 N   0  0  0  0  0  0  0  0  0  0  0  0
   -1.0175    0.2112    1.3210 C   0  0  0  0  0  0  0  0  0  0  0  0
   -2.2007    0.1395    2.0122 N   0  0  0  0  0  0  0  0  0  0  0  0
   -3.4018   -0.1184    1.2872 C   0  0  0  0  0  0  0  0  0  0  0  0
   -4.5229    0.6697    1.5774 C   0  0  0  0  0  0  0  0  0  0  0  0
   -5.7411    0.4442    0.9306 C   0  0  0  0  0  0  0  0  0  0  0  0
   -5.8638   -0.5838   -0.0102 C   0  0  0  0  0  0  0  0  0  0  0  0
   -7.1781   -0.8495   -0.6823 C   0  0  0  0  0  0  0  0  0  0  0  0
   -4.7600   -1.4058   -0.2657 C   0  0  0  0  0  0  0  0  0  0  0  0
   -3.5446   -1.1805    0.3807 C   0  0  0  0  0  0  0  0  0  0  0  0
   -2.5454   -2.0705    0.0939 O   0  0  0  0  0  0  0  0  0  0  0  0
   -0.7741    1.4341    0.6048 C   0  0  0  0  0  0  0  0  0  0  0  0
   -1.4213    2.6573    0.3867 C   0  0  0  0  0  0  0  0  0  0  0  0
   -0.7025    3.4784   -0.3960 N   0  0  0  0  0  0  0  0  0  0  0  0
    0.4085    2.7585   -0.6901 N   0  0  0  0  0  0  0  0  0  0  0  0
    1.4106    3.3381   -1.5475 C   0  0  0  0  0  0  0  0  0  0  0  0
    0.3965    1.5381   -0.0925 C   0  0  0  0  0  0  0  0  0  0  0  0
    2.1607    0.5844   -0.6387 H   0  0  0  0  0  0  0  0  0  0  0  0
    3.0333   -1.1864   -0.9845 H   0  0  0  0  0  0  0  0  0  0  0  0
    3.2300   -2.7798   -0.3107 H   0  0  0  0  0  0  0  0  0  0  0  0
    4.5030   -2.0615    1.5393 H   0  0  0  0  0  0  0  0  0  0  0  0
    3.8017   -0.4390    1.5409 H   0  0  0  0  0  0  0  0  0  0  0  0
    5.8006    0.0633    0.6516 H   0  0  0  0  0  0  0  0  0  0  0  0
    8.1949   -1.2695   -0.5895 H   0  0  0  0  0  0  0  0  0  0  0  0
    7.3333    0.2495   -0.9417 H   0  0  0  0  0  0  0  0  0  0  0  0
    7.4588   -0.9946   -2.1961 H   0  0  0  0  0  0  0  0  0  0  0  0
   -2.1243   -0.6473    2.6593 H   0  0  0  0  0  0  0  0  0  0  0  0
   -4.4495    1.4733    2.3064 H   0  0  0  0  0  0  0  0  0  0  0  0
   -6.5945    1.0760    1.1679 H   0  0  0  0  0  0  0  0  0  0  0  0
   -7.0271   -1.2672   -1.6833 H   0  0  0  0  0  0  0  0  0  0  0  0
   -7.7661   -1.5560   -0.0885 H   0  0  0  0  0  0  0  0  0  0  0  0
   -7.7506    0.0765   -0.8002 H   0  0  0  0  0  0  0  0  0  0  0  0
   -4.8414   -2.2354   -0.9644 H   0  0  0  0  0  0  0  0  0  0  0  0
   -1.7301   -1.8577    0.5873 H   0  0  0  0  0  0  0  0  0  0  0  0
   -2.3798    2.9943    0.7588 H   0  0  0  0  0  0  0  0  0  0  0  0
    1.7898    4.2448   -1.0696 H   0  0  0  0  0  0  0  0  0  0  0  0
    0.9465    3.5770   -2.5077 H   0  0  0  0  0  0  0  0  0  0  0  0
    2.2276    2.6294   -1.6982 H   0  0  0  0  0  0  0  0  0  0  0  0
  1  2  1  0
  2  3  2  3
  3  4  1  0
  4  5  1  0
  5  6  1  0
  6  7  1  0
  7  8  1  0
  7  9  2  0
  2 10  1  0
 10 11  2  0
 11 12  1  0
 12 13  1  0
 13 14  2  0
 14 15  1  0
 15 16  2  0
 16 17  1  0
 16 18  1  0
 18 19  2  0
 19 20  1  0
 11 21  1  0
 21 22  1  0
 22 23  2  0
 23 24  1  0
 24 25  1  0
 24 26  1  0
 26  1  1  0
 19 13  1  0
 26 21  2  0
  1 27  1  0
  4 28  1  0
  4 29  1  0
  5 30  1  0
  5 31  1  0
  6 32  1  0
  8 33  1  0
  8 34  1  0
  8 35  1  0
 12 36  1  0
 14 37  1  0
 15 38  1  0
 17 39  1  0
 17 40  1  0
 17 41  1  0
 18 42  1  0
 20 43  1  0
 22 44  1  0
 25 45  1  0
 25 46  1  0
 25 47  1  0
M  END
>  <ScrubInfo>  (4) 
{"isomerGroup": 0, "isomerId": 3, "confId": 0, "nr_conformers:": 1, "nr_isomers:": 9}

$$$$
_i4
     RDKit          3D

 47 49  0  0  0  0  0  0  0  0999 V2000
    0.3347   -2.0570    4.3254 N   0  0  0  0  0  0  0  0  0  0  0  0
   -0.8043   -2.0193    3.5280 C   0  0  0  0  0  0  0  0  0  0  0  0
   -0.6587   -1.2331    2.4537 C   0  0  0  0  0  0  0  0  0  0  0  0
   -1.4617   -0.8012    1.3334 C   0  0  0  0  0  0  0  0  0  0  0  0
   -2.6595   -1.2560    1.1267 N   0  0  0  0  0  0  0  0  0  0  0  0
   -3.3867   -0.7711    0.0208 C   0  0  0  0  0  0  0  0  0  0  0  0
   -3.8967    0.5274   -0.0233 C   0  0  0  0  0  0  0  0  0  0  0  0
   -4.6347    0.9595   -1.1310 C   0  0  0  0  0  0  0  0  0  0  0  0
   -4.8772    0.0954   -2.2092 C   0  0  0  0  0  0  0  0  0  0  0  0
   -5.6961    0.5546   -3.3789 C   0  0  0  0  0  0  0  0  0  0  0  0
   -4.3991   -1.2189   -2.1513 C   0  0  0  0  0  0  0  0  0  0  0  0
   -3.6682   -1.6351   -1.0442 C   0  0  0  0  0  0  0  0  0  0  0  0
   -3.2273   -2.9319   -0.9964 O   0  0  0  0  0  0  0  0  0  0  0  0
   -0.8470    0.1097    0.5186 N   0  0  0  0  0  0  0  0  0  0  0  0
    0.3757    0.5122    0.7126 C   0  0  0  0  0  0  0  0  0  0  0  0
    0.8490    1.4318   -0.1746 N   0  0  0  0  0  0  0  0  0  0  0  0
    2.2578    1.6687   -0.4197 C   0  0  0  0  0  0  0  0  0  0  0  0
    2.9041    0.4921   -1.1660 C   0  0  0  0  0  0  0  0  0  0  0  0
    4.3281    0.6704   -1.3907 N   0  0  0  0  0  0  0  0  0  0  0  0
    4.8041    1.5490   -2.3338 C   0  0  0  0  0  0  0  0  0  0  0  0
    6.3039    1.5869   -2.4500 C   0  0  0  0  0  0  0  0  0  0  0  0
    4.0772    2.2468   -3.0330 O   0  0  0  0  0  0  0  0  0  0  0  0
    1.2088    0.0795    1.7135 N   0  0  0  0  0  0  0  0  0  0  0  0
    0.7283   -0.7643    2.5590 C   0  0  0  0  0  0  0  0  0  0  0  0
    1.3441   -1.3622    3.6610 N   0  0  0  0  0  0  0  0  0  0  0  0
    2.3222   -0.6326    4.4464 C   0  0  0  0  0  0  0  0  0  0  0  0
    0.5715   -2.9968    4.6522 H   0  0  0  0  0  0  0  0  0  0  0  0
   -1.6757   -2.5937    3.8098 H   0  0  0  0  0  0  0  0  0  0  0  0
   -3.7129    1.2077    0.8029 H   0  0  0  0  0  0  0  0  0  0  0  0
   -5.0189    1.9769   -1.1463 H   0  0  0  0  0  0  0  0  0  0  0  0
   -5.4265    0.0046   -4.2866 H   0  0  0  0  0  0  0  0  0  0  0  0
   -6.7600    0.3991   -3.1752 H   0  0  0  0  0  0  0  0  0  0  0  0
   -5.5243    1.6171   -3.5803 H   0  0  0  0  0  0  0  0  0  0  0  0
   -4.5954   -1.9215   -2.9560 H   0  0  0  0  0  0  0  0  0  0  0  0
   -2.8157   -3.0015   -0.1123 H   0  0  0  0  0  0  0  0  0  0  0  0
    0.2375    1.5509   -0.9750 H   0  0  0  0  0  0  0  0  0  0  0  0
    2.3554    2.5873   -1.0086 H   0  0  0  0  0  0  0  0  0  0  0  0
    2.7850    1.8558    0.5236 H   0  0  0  0  0  0  0  0  0  0  0  0
    2.4156    0.3527   -2.1378 H   0  0  0  0  0  0  0  0  0  0  0  0
    2.7881   -0.4397   -0.6026 H   0  0  0  0  0  0  0  0  0  0  0  0
    4.9737    0.1236   -0.8362 H   0  0  0  0  0  0  0  0  0  0  0  0
    6.5982    1.1641   -3.4142 H   0  0  0  0  0  0  0  0  0  0  0  0
    6.7877    1.0167   -1.6523 H   0  0  0  0  0  0  0  0  0  0  0  0
    6.6407    2.6250   -2.3828 H   0  0  0  0  0  0  0  0  0  0  0  0
    1.8619    0.2320    4.9359 H   0  0  0  0  0  0  0  0  0  0  0  0
    3.1410   -0.2809    3.8107 H   0  0  0  0  0  0  0  0  0  0  0  0
    2.7519   -1.2810    5.2168 H   0  0  0  0  0  0  0  0  0  0  0  0
  1  2  1  0
  2  3  2  0
  3  4  1  0
  4  5  2  3
  5  6  1  0
  6  7  2  0
  7  8  1  0
  8  9  2  0
  9 10  1  0
  9 11  1  0
 11 12  2  0
 12 13  1  0
  4 14  1  0
 14 15  2  0
 15 16  1  0
 16 17  1  0
 17 18  1  0
 18 19  1  0
 19 20  1  0
 20 21  1  0
 20 22  2  0
 15 23  1  0
 23 24  2  0
 24 25  1  0
 25 26  1  0
 25  1  1  0
 24  3  1  0
 12  6  1  0
  1 27  1  0
  2 28  1  0
  7 29  1  0
  8 30  1  0
 10 31  1  0
 10 32  1  0
 10 33  1  0
 11 34  1  0
 13 35  1  0
 16 36  1  0
 17 37  1  0
 17 38  1  0
 18 39  1  0
 18 40  1  0
 19 41  1  0
 21 42  1  0
 21 43  1  0
 21 44  1  0
 26 45  1  0
 26 46  1  0
 26 47  1  0
M  END
>  <ScrubInfo>  (5) 
{"isomerGroup": 0, "isomerId": 4, "confId": 0, "nr_conformers:": 1, "nr_isomers:": 9}

$$$$
_i5
     RDKit          3D

 47 49  0  0  0  0  0  0  0  0999 V2000
    1.1083   -1.0367   -0.5949 N   0  0  0  0  0  0  0  0  0  0  0  0
    1.2076   -0.6722    0.7239 C   0  0  0  0  0  0  0  0  0  0  0  0
    2.4636   -0.7032    1.2596 N   0  0  0  0  0  0  0  0  0  0  0  0
    3.6143   -0.0994    0.5916 C   0  0  0  0  0  0  0  0  0  0  0  0
    4.8729   -0.2616    1.4606 C   0  0  0  0  0  0  0  0  0  0  0  0
    6.1159    0.0327    0.7675 N   0  0  0  0  0  0  0  0  0  0  0  0
    6.4109    1.3062    0.3377 C   0  0  0  0  0  0  0  0  0  0  0  0
    7.7995    1.4669   -0.2198 C   0  0  0  0  0  0  0  0  0  0  0  0
    5.6194    2.2398    0.4001 O   0  0  0  0  0  0  0  0  0  0  0  0
    0.2122   -0.3322    1.4926 N   0  0  0  0  0  0  0  0  0  0  0  0
   -1.0788   -0.2799    0.9746 C   0  0  0  0  0  0  0  0  0  0  0  0
   -1.9952    0.1437    1.7849 N   0  0  0  0  0  0  0  0  0  0  0  0
   -3.3273    0.3060    1.3906 C   0  0  0  0  0  0  0  0  0  0  0  0
   -4.2802   -0.6147    1.8324 C   0  0  0  0  0  0  0  0  0  0  0  0
   -5.6282   -0.4641    1.4951 C   0  0  0  0  0  0  0  0  0  0  0  0
   -6.0469    0.6183    0.7113 C   0  0  0  0  0  0  0  0  0  0  0  0
   -7.4992    0.7956    0.3788 C   0  0  0  0  0  0  0  0  0  0  0  0
   -5.1030    1.5664    0.2952 C   0  0  0  0  0  0  0  0  0  0  0  0
   -3.7577    1.4082    0.6355 C   0  0  0  0  0  0  0  0  0  0  0  0
   -2.8339    2.3265    0.2104 O   0  0  0  0  0  0  0  0  0  0  0  0
   -1.2424   -0.7335   -0.3979 C   0  0  0  0  0  0  0  0  0  0  0  0
   -2.2973   -0.9774   -1.2961 C   0  0  0  0  0  0  0  0  0  0  0  0
   -1.8765   -1.4385   -2.4861 N   0  0  0  0  0  0  0  0  0  0  0  0
   -0.5321   -1.4875   -2.3504 N   0  0  0  0  0  0  0  0  0  0  0  0
    0.2684   -1.9373   -3.4602 C   0  0  0  0  0  0  0  0  0  0  0  0
   -0.1288   -1.0879   -1.1172 C   0  0  0  0  0  0  0  0  0  0  0  0
    1.9143   -1.4712   -1.0195 H   0  0  0  0  0  0  0  0  0  0  0  0
    2.3804   -0.3716    2.2208 H   0  0  0  0  0  0  0  0  0  0  0  0
    3.7855   -0.5858   -0.3753 H   0  0  0  0  0  0  0  0  0  0  0  0
    3.4116    0.9593    0.3985 H   0  0  0  0  0  0  0  0  0  0  0  0
    4.9529   -1.2956    1.8152 H   0  0  0  0  0  0  0  0  0  0  0  0
    4.8087    0.3863    2.3426 H   0  0  0  0  0  0  0  0  0  0  0  0
    6.8815   -0.6192    0.8844 H   0  0  0  0  0  0  0  0  0  0  0  0
    7.7438    2.0132   -1.1654 H   0  0  0  0  0  0  0  0  0  0  0  0
    8.2719    0.4995   -0.4115 H   0  0  0  0  0  0  0  0  0  0  0  0
    8.4093    2.0259    0.4947 H   0  0  0  0  0  0  0  0  0  0  0  0
   -3.9660   -1.4509    2.4516 H   0  0  0  0  0  0  0  0  0  0  0  0
   -6.3483   -1.1954    1.8555 H   0  0  0  0  0  0  0  0  0  0  0  0
   -7.6199    1.3003   -0.5855 H   0  0  0  0  0  0  0  0  0  0  0  0
   -8.0039   -0.1733    0.3031 H   0  0  0  0  0  0  0  0  0  0  0  0
   -7.9905    1.3911    1.1544 H   0  0  0  0  0  0  0  0  0  0  0  0
   -5.4242    2.4191   -0.2957 H   0  0  0  0  0  0  0  0  0  0  0  0
   -3.2981    3.0848   -0.1759 H   0  0  0  0  0  0  0  0  0  0  0  0
   -3.3615   -0.8562   -1.1494 H   0  0  0  0  0  0  0  0  0  0  0  0
    0.1274   -3.0155   -3.5682 H   0  0  0  0  0  0  0  0  0  0  0  0
   -0.0613   -1.4164   -4.3629 H   0  0  0  0  0  0  0  0  0  0  0  0
    1.3208   -1.7127   -3.2740 H   0  0  0  0  0  0  0  0  0  0  0  0
  1  2  1  0
  2  3  1  0
  3  4  1  0
  4  5  1  0
  5  6  1  0
  6  7  1  0
  7  8  1  0
  7  9  2  0
  2 10  2  0
 10 11  1  0
 11 12  2  3
 12 13  1  0
 13 14  2  0
 14 15  1  0
 15 16  2  0
 16 17  1  0
 16 18  1  0
 18 19  2  0
 19 20  1  0
 11 21  1  0
 21 22  1  0
 22 23  2  0
 23 24  1  0
 24 25  1  0
 24 26  1  0
 26  1  1  0
 19 13  1  0
 26 21  2  0
  1 27  1  0
  3 28  1  0
  4 29  1  0
  4 30  1  0
  5 31  1  0
  5 32  1  0
  6 33  1  0
  8 34  1  0
  8 35  1  0
  8 36  1  0
 14 37  1  0
 15 38  1  0
 17 39  1  0
 17 40  1  0
 17 41  1  0
 18 42  1  0
 20 43  1  0
 22 44  1  0
 25 45  1  0
 25 46  1  0
 25 47  1  0
M  END
>  <ScrubInfo>  (6) 
{"isomerGroup": 0, "isomerId": 5, "confId": 0, "nr_conformers:": 1, "nr_isomers:": 9}

$$$$
_i6
     RDKit          3D

 47 49  0  0  0  0  0  0  0  0999 V2000
    1.6322   -3.3471   -0.1091 N   0  0  0  0  0  0  0  0  0  0  0  0
    1.9868   -2.0714   -0.5366 C   0  0  0  0  0  0  0  0  0  0  0  0
    0.9296   -1.3063   -0.8396 C   0  0  0  0  0  0  0  0  0  0  0  0
    0.6436    0.0506   -1.3045 C   0  0  0  0  0  0  0  0  0  0  0  0
    1.6134    0.9828   -1.6166 N   0  0  0  0  0  0  0  0  0  0  0  0
    2.7500    1.2263   -0.8056 C   0  0  0  0  0  0  0  0  0  0  0  0
    3.9422    1.5907   -1.4433 C   0  0  0  0  0  0  0  0  0  0  0  0
    5.0838    1.9120   -0.7034 C   0  0  0  0  0  0  0  0  0  0  0  0
    5.0502    1.8952    0.6949 C   0  0  0  0  0  0  0  0  0  0  0  0
    6.2668    2.2731    1.4877 C   0  0  0  0  0  0  0  0  0  0  0  0
    3.8469    1.5915    1.3430 C   0  0  0  0  0  0  0  0  0  0  0  0
    2.7095    1.2729    0.5968 C   0  0  0  0  0  0  0  0  0  0  0  0
    1.5293    1.0211    1.2424 O   0  0  0  0  0  0  0  0  0  0  0  0
   -0.6051    0.3935   -1.4783 N   0  0  0  0  0  0  0  0  0  0  0  0
   -1.5945   -0.5114   -1.1635 C   0  0  0  0  0  0  0  0  0  0  0  0
   -2.7822   -0.0232   -1.2559 N   0  0  0  0  0  0  0  0  0  0  0  0
   -3.9016   -0.9173   -0.9283 C   0  0  0  0  0  0  0  0  0  0  0  0
   -5.2074   -0.1290   -1.0756 C   0  0  0  0  0  0  0  0  0  0  0  0
   -5.2087    1.0515   -0.2280 N   0  0  0  0  0  0  0  0  0  0  0  0
   -5.5888    0.9765    1.0911 C   0  0  0  0  0  0  0  0  0  0  0  0
   -5.3069    2.2279    1.8783 C   0  0  0  0  0  0  0  0  0  0  0  0
   -6.1064   -0.0109    1.6036 O   0  0  0  0  0  0  0  0  0  0  0  0
   -1.4288   -1.8245   -0.7866 N   0  0  0  0  0  0  0  0  0  0  0  0
   -0.2126   -2.2216   -0.6377 C   0  0  0  0  0  0  0  0  0  0  0  0
    0.2583   -3.4864   -0.2811 N   0  0  0  0  0  0  0  0  0  0  0  0
   -0.4873   -4.3250    0.6381 C   0  0  0  0  0  0  0  0  0  0  0  0
    2.2113   -4.0845   -0.5170 H   0  0  0  0  0  0  0  0  0  0  0  0
    3.0326   -1.8061   -0.5944 H   0  0  0  0  0  0  0  0  0  0  0  0
    1.1564    1.8706   -1.8151 H   0  0  0  0  0  0  0  0  0  0  0  0
    3.9894    1.6135   -2.5299 H   0  0  0  0  0  0  0  0  0  0  0  0
    5.9982    2.1802   -1.2289 H   0  0  0  0  0  0  0  0  0  0  0  0
    6.2835    1.7500    2.4497 H   0  0  0  0  0  0  0  0  0  0  0  0
    6.2740    3.3520    1.6707 H   0  0  0  0  0  0  0  0  0  0  0  0
    7.1822    1.9982    0.9532 H   0  0  0  0  0  0  0  0  0  0  0  0
    3.8045    1.6164    2.4284 H   0  0  0  0  0  0  0  0  0  0  0  0
    1.6543    1.1343    2.1986 H   0  0  0  0  0  0  0  0  0  0  0  0
   -3.8132   -1.2817    0.1026 H   0  0  0  0  0  0  0  0  0  0  0  0
   -3.9292   -1.7736   -1.6122 H   0  0  0  0  0  0  0  0  0  0  0  0
   -5.3226    0.2239   -2.1060 H   0  0  0  0  0  0  0  0  0  0  0  0
   -6.0640   -0.7639   -0.8269 H   0  0  0  0  0  0  0  0  0  0  0  0
   -4.4928    1.7275   -0.4684 H   0  0  0  0  0  0  0  0  0  0  0  0
   -4.4492    2.0530    2.5330 H   0  0  0  0  0  0  0  0  0  0  0  0
   -6.1857    2.4786    2.4789 H   0  0  0  0  0  0  0  0  0  0  0  0
   -5.0886    3.0754    1.2224 H   0  0  0  0  0  0  0  0  0  0  0  0
   -0.5312   -3.8689    1.6326 H   0  0  0  0  0  0  0  0  0  0  0  0
   -1.5093   -4.4786    0.2773 H   0  0  0  0  0  0  0  0  0  0  0  0
   -0.0130   -5.3078    0.7266 H   0  0  0  0  0  0  0  0  0  0  0  0
  1  2  1  0
  2  3  2  0
  3  4  1  0
  4  5  1  0
  5  6  1  0
  6  7  2  0
  7  8  1  0
  8  9  2  0
  9 10  1  0
  9 11  1  0
 11 12  2  0
 12 13  1  0
  4 14  2  0
 14 15  1  0
 15 16  2  3
 16 17  1  0
 17 18  1  0
 18 19  1  0
 19 20  1  0
 20 21  1  0
 20 22  2  0
 15 23  1  0
 23 24  2  0
 24 25  1  0
 25 26  1  0
 25  1  1  0
 24  3  1  0
 12  6  1  0
  1 27  1  0
  2 28  1  0
  5 29  1  0
  7 30  1  0
  8 31  1  0
 10 32  1  0
 10 33  1  0
 10 34  1  0
 11 35  1  0
 13 36  1  0
 17 37  1  0
 17 38  1  0
 18 39  1  0
 18 40  1  0
 19 41  1  0
 21 42  1  0
 21 43  1  0
 21 44  1  0
 26 45  1  0
 26 46  1  0
 26 47  1  0
M  END
>  <ScrubInfo>  (7) 
{"isomerGroup": 0, "isomerId": 6, "confId": 0, "nr_conformers:": 1, "nr_isomers:": 9}

$$$$
_i7
     RDKit          3D

 47 49  0  0  0  0  0  0  0  0999 V2000
    0.3567   -4.4144    0.1078 N   0  0  0  0  0  0  0  0  0  0  0  0
   -0.8444   -3.7418   -0.0837 C   0  0  0  0  0  0  0  0  0  0  0  0
   -0.7365   -2.4218    0.1074 C   0  0  0  0  0  0  0  0  0  0  0  0
   -1.5910   -1.2353    0.0159 C   0  0  0  0  0  0  0  0  0  0  0  0
   -2.8482   -1.3786   -0.2869 N   0  0  0  0  0  0  0  0  0  0  0  0
   -3.6414   -0.2227   -0.4035 C   0  0  0  0  0  0  0  0  0  0  0  0
   -3.6223    0.5575   -1.5597 C   0  0  0  0  0  0  0  0  0  0  0  0
   -4.4040    1.7146   -1.6394 C   0  0  0  0  0  0  0  0  0  0  0  0
   -5.2313    2.0926   -0.5712 C   0  0  0  0  0  0  0  0  0  0  0  0
   -6.0423    3.3526   -0.6476 C   0  0  0  0  0  0  0  0  0  0  0  0
   -5.2568    1.3051    0.5863 C   0  0  0  0  0  0  0  0  0  0  0  0
   -4.4785    0.1557    0.6516 C   0  0  0  0  0  0  0  0  0  0  0  0
   -4.5373   -0.6166    1.7803 O   0  0  0  0  0  0  0  0  0  0  0  0
   -0.8996   -0.0800    0.2796 N   0  0  0  0  0  0  0  0  0  0  0  0
    0.4274    0.0235    0.6021 C   0  0  0  0  0  0  0  0  0  0  0  0
    0.9195    1.2045    0.7837 N   0  0  0  0  0  0  0  0  0  0  0  0
    2.3350    1.3233    1.1446 C   0  0  0  0  0  0  0  0  0  0  0  0
    3.2301    1.2738   -0.0951 C   0  0  0  0  0  0  0  0  0  0  0  0
    4.6362    1.4213    0.2424 N   0  0  0  0  0  0  0  0  0  0  0  0
    5.5671    1.6796   -0.7386 C   0  0  0  0  0  0  0  0  0  0  0  0
    6.9906    1.6613   -0.2494 C   0  0  0  0  0  0  0  0  0  0  0  0
    5.2865    1.8937   -1.9129 O   0  0  0  0  0  0  0  0  0  0  0  0
    1.2357   -1.0884    0.7313 N   0  0  0  0  0  0  0  0  0  0  0  0
    0.6935   -2.2461    0.5128 C   0  0  0  0  0  0  0  0  0  0  0  0
    1.2950   -3.5054    0.5930 N   0  0  0  0  0  0  0  0  0  0  0  0
    2.6908   -3.6861    0.2396 C   0  0  0  0  0  0  0  0  0  0  0  0
    0.2571   -5.2862    0.6331 H   0  0  0  0  0  0  0  0  0  0  0  0
   -1.7299   -4.2957   -0.3623 H   0  0  0  0  0  0  0  0  0  0  0  0
   -2.9968    0.2684   -2.3997 H   0  0  0  0  0  0  0  0  0  0  0  0
   -4.3678    2.3180   -2.5444 H   0  0  0  0  0  0  0  0  0  0  0  0
   -6.3431    3.5612   -1.6797 H   0  0  0  0  0  0  0  0  0  0  0  0
   -6.9585    3.2643   -0.0542 H   0  0  0  0  0  0  0  0  0  0  0  0
   -5.4569    4.1972   -0.2716 H   0  0  0  0  0  0  0  0  0  0  0  0
   -5.8840    1.5747    1.4316 H   0  0  0  0  0  0  0  0  0  0  0  0
   -4.0271   -1.4190    1.5518 H   0  0  0  0  0  0  0  0  0  0  0  0
   -1.3873    0.8036    0.2446 H   0  0  0  0  0  0  0  0  0  0  0  0
    2.4712    2.2898    1.6453 H   0  0  0  0  0  0  0  0  0  0  0  0
    2.6390    0.5724    1.8850 H   0  0  0  0  0  0  0  0  0  0  0  0
    2.9497    2.0668   -0.7984 H   0  0  0  0  0  0  0  0  0  0  0  0
    3.1230    0.3213   -0.6255 H   0  0  0  0  0  0  0  0  0  0  0  0
    4.9605    0.9711    1.0880 H   0  0  0  0  0  0  0  0  0  0  0  0
    7.4656    0.7285   -0.5643 H   0  0  0  0  0  0  0  0  0  0  0  0
    7.0420    1.7395    0.8403 H   0  0  0  0  0  0  0  0  0  0  0  0
    7.5274    2.5123   -0.6777 H   0  0  0  0  0  0  0  0  0  0  0  0
    3.3268   -3.0156    0.8264 H   0  0  0  0  0  0  0  0  0  0  0  0
    2.8525   -3.4812   -0.8239 H   0  0  0  0  0  0  0  0  0  0  0  0
    3.0064   -4.7135    0.4483 H   0  0  0  0  0  0  0  0  0  0  0  0
  1  2  1  0
  2  3  2  0
  3  4  1  0
  4  5  2  3
  5  6  1  0
  6  7  2  0
  7  8  1  0
  8  9  2  0
  9 10  1  0
  9 11  1  0
 11 12  2  0
 12 13  1  0
  4 14  1  0
 14 15  1  0
 15 16  2  3
 16 17  1  0
 17 18  1  0
 18 19  1  0
 19 20  1  0
 20 21  1  0
 20 22  2  0
 15 23  1  0
 23 24  2  0
 24 25  1  0
 25 26  1  0
 25  1  1  0
 24  3  1  0
 12  6  1  0
  1 27  1  0
  2 28  1  0
  7 29  1  0
  8 30  1  0
 10 31  1  0
 10 32  1  0
 10 33  1  0
 11 34  1  0
 13 35  1  0
 14 36  1  0
 17 37  1  0
 17 38  1  0
 18 39  1  0
 18 40  1  0
 19 41  1  0
 21 42  1  0
 21 43  1  0
 21 44  1  0
 26 45  1  0
 26 46  1  0
 26 47  1  0
M  END
>  <ScrubInfo>  (8) 
{"isomerGroup": 0, "isomerId": 7, "confId": 0, "nr_conformers:": 1, "nr_isomers:": 9}

$$$$
_i8
     RDKit          3D

 47 49  0  0  0  0  0  0  0  0999 V2000
    1.3400    0.0164   -0.4778 N   0  0  0  0  0  0  0  0  0  0  0  0
    1.3284    1.1596    0.3033 C   0  0  0  0  0  0  0  0  0  0  0  0
    2.3279    1.8709    0.6982 N   0  0  0  0  0  0  0  0  0  0  0  0
    3.6903    1.5070    0.3026 C   0  0  0  0  0  0  0  0  0  0  0  0
    4.3191    0.5977    1.3662 C   0  0  0  0  0  0  0  0  0  0  0  0
    5.4560   -0.1737    0.8897 N   0  0  0  0  0  0  0  0  0  0  0  0
    6.6164    0.4439    0.4755 C   0  0  0  0  0  0  0  0  0  0  0  0
    7.7504   -0.5064    0.1975 C   0  0  0  0  0  0  0  0  0  0  0  0
    6.7369    1.6560    0.3426 O   0  0  0  0  0  0  0  0  0  0  0  0
    0.0626    1.5373    0.6955 N   0  0  0  0  0  0  0  0  0  0  0  0
   -1.1773    0.9818    0.4647 C   0  0  0  0  0  0  0  0  0  0  0  0
   -2.2527    1.5133    0.9672 N   0  0  0  0  0  0  0  0  0  0  0  0
   -3.5183    0.9385    0.7900 C   0  0  0  0  0  0  0  0  0  0  0  0
   -3.9754   -0.0710    1.6380 C   0  0  0  0  0  0  0  0  0  0  0  0
   -5.2482   -0.6217    1.4546 C   0  0  0  0  0  0  0  0  0  0  0  0
   -6.0823   -0.1635    0.4240 C   0  0  0  0  0  0  0  0  0  0  0  0
   -7.4586   -0.7348    0.2500 C   0  0  0  0  0  0  0  0  0  0  0  0
   -5.6423    0.8810   -0.3981 C   0  0  0  0  0  0  0  0  0  0  0  0
   -4.3774    1.4235   -0.2029 C   0  0  0  0  0  0  0  0  0  0  0  0
   -3.9790    2.4603   -1.0029 O   0  0  0  0  0  0  0  0  0  0  0  0
   -1.0651   -0.1989   -0.3754 C   0  0  0  0  0  0  0  0  0  0  0  0
   -1.9330   -1.1394   -0.9621 C   0  0  0  0  0  0  0  0  0  0  0  0
   -1.2845   -2.0747   -1.6722 N   0  0  0  0  0  0  0  0  0  0  0  0
    0.0123   -1.7157   -1.5710 N   0  0  0  0  0  0  0  0  0  0  0  0
    1.0155   -2.5019   -2.2439 C   0  0  0  0  0  0  0  0  0  0  0  0
    0.1827   -0.6089   -0.7967 C   0  0  0  0  0  0  0  0  0  0  0  0
    2.2362   -0.3099   -0.8119 H   0  0  0  0  0  0  0  0  0  0  0  0
    3.7273    1.0474   -0.6913 H   0  0  0  0  0  0  0  0  0  0  0  0
    4.2723    2.4313    0.2151 H   0  0  0  0  0  0  0  0  0  0  0  0
    4.6414    1.1915    2.2293 H   0  0  0  0  0  0  0  0  0  0  0  0
    3.5862   -0.1341    1.7243 H   0  0  0  0  0  0  0  0  0  0  0  0
    5.5435   -1.1179    1.2430 H   0  0  0  0  0  0  0  0  0  0  0  0
    8.2373   -0.2183   -0.7384 H   0  0  0  0  0  0  0  0  0  0  0  0
    8.4697   -0.4556    1.0189 H   0  0  0  0  0  0  0  0  0  0  0  0
    7.3964   -1.5360    0.0943 H   0  0  0  0  0  0  0  0  0  0  0  0
    0.0496    2.3627    1.2780 H   0  0  0  0  0  0  0  0  0  0  0  0
   -3.3408   -0.4315    2.4425 H   0  0  0  0  0  0  0  0  0  0  0  0
   -5.5865   -1.4099    2.1240 H   0  0  0  0  0  0  0  0  0  0  0  0
   -7.7707   -0.6889   -0.7987 H   0  0  0  0  0  0  0  0  0  0  0  0
   -8.1758   -0.1749    0.8579 H   0  0  0  0  0  0  0  0  0  0  0  0
   -7.4847   -1.7875    0.5505 H   0  0  0  0  0  0  0  0  0  0  0  0
   -6.2796    1.2810   -1.1821 H   0  0  0  0  0  0  0  0  0  0  0  0
   -3.1368    2.7638   -0.6112 H   0  0  0  0  0  0  0  0  0  0  0  0
   -3.0117   -1.2022   -0.9151 H   0  0  0  0  0  0  0  0  0  0  0  0
    1.3528   -3.2818   -1.5571 H   0  0  0  0  0  0  0  0  0  0  0  0
    0.5793   -2.9482   -3.1415 H   0  0  0  0  0  0  0  0  0  0  0  0
    1.8499   -1.8573   -2.5298 H   0  0  0  0  0  0  0  0  0  0  0  0
  1  2  1  0
  2  3  2  3
  3  4  1  0
  4  5  1  0
  5  6  1  0
  6  7  1  0
  7  8  1  0
  7  9  2  0
  2 10  1  0
 10 11  1  0
 11 12  2  3
 12 13  1  0
 13 14  2  0
 14 15  1  0
 15 16  2  0
 16 17  1  0
 16 18  1  0
 18 19  2  0
 19 20  1  0
 11 21  1  0
 21 22  1  0
 22 23  2  0
 23 24  1  0
 24 25  1  0
 24 26  1  0
 26  1  1  0
 19 13  1  0
 26 21  2  0
  1 27  1  0
  4 28  1  0
  4 29  1  0
  5 30  1  0
  5 31  1  0
  6 32  1  0
  8 33  1  0
  8 34  1  0
  8 35  1  0
 10 36  1  0
 14 37  1  0
 15 38  1  0
 17 39  1  0
 17 40  1  0
 17 41  1  0
 18 42  1  0
 20 43  1  0
 22 44  1  0
 25 45  1  0
 25 46  1  0
 25 47  1  0
M  END
>  <ScrubInfo>  (9) 
{"isomerGroup": 0, "isomerId": 8, "confId": 0, "nr_conformers:": 1, "nr_isomers:": 9}

$$$$
