_i0
     RDKit          3D

 43 45  0  0  0  0  0  0  0  0999 V2000
    7.6140    0.2919    0.4799 C   0  0  0  0  0  0  0  0  0  0  0  0
    6.4889    0.7486   -0.2591 O   0  0  0  0  0  0  0  0  0  0  0  0
    5.3107    0.0114    0.0632 C   0  0  0  0  0  0  0  0  0  0  0  0
    4.1621    0.5505   -0.7787 C   0  0  0  0  0  0  0  0  0  0  0  0
    2.8567   -0.1711   -0.4592 C   0  0  0  0  0  0  0  0  0  0  0  0
    1.7966    0.3499   -1.3043 N   0  0  0  0  0  0  0  0  0  0  0  0
    0.5304   -0.1514   -1.0202 C   0  0  0  0  0  0  0  0  0  0  0  0
   -0.4687    0.7363   -1.1843 N   0  0  0  0  0  0  0  0  0  0  0  0
   -1.7502    0.3716   -0.9278 C   0  0  0  0  0  0  0  0  0  0  0  0
   -2.7432    1.3436   -1.1424 N   0  0  0  0  0  0  0  0  0  0  0  0
   -3.8359    1.6352   -0.2928 C   0  0  0  0  0  0  0  0  0  0  0  0
   -4.9667    2.2393   -0.8604 C   0  0  0  0  0  0  0  0  0  0  0  0
   -6.0599    2.6051   -0.0687 C   0  0  0  0  0  0  0  0  0  0  0  0
   -6.0283    2.3947    1.3088 C   0  0  0  0  0  0  0  0  0  0  0  0
   -4.8986    1.8291    1.8952 C   0  0  0  0  0  0  0  0  0  0  0  0
   -3.8125    1.4667    1.1000 C   0  0  0  0  0  0  0  0  0  0  0  0
   -2.7267    0.9670    1.7093 F   0  0  0  0  0  0  0  0  0  0  0  0
   -1.9886   -0.9462   -0.5339 C   0  0  0  0  0  0  0  0  0  0  0  0
   -3.0830   -1.7765   -0.2171 C   0  0  0  0  0  0  0  0  0  0  0  0
   -2.7155   -3.0236    0.1031 N   0  0  0  0  0  0  0  0  0  0  0  0
   -1.3676   -2.9860   -0.0168 N   0  0  0  0  0  0  0  0  0  0  0  0
   -0.6001   -4.1772    0.2436 C   0  0  0  0  0  0  0  0  0  0  0  0
   -0.8855   -1.7650   -0.4018 C   0  0  0  0  0  0  0  0  0  0  0  0
    0.3935   -1.4234   -0.6181 N   0  0  0  0  0  0  0  0  0  0  0  0
    8.4813    0.8924    0.1931 H   0  0  0  0  0  0  0  0  0  0  0  0
    7.4427    0.4153    1.5536 H   0  0  0  0  0  0  0  0  0  0  0  0
    7.8233   -0.7572    0.2494 H   0  0  0  0  0  0  0  0  0  0  0  0
    5.4730   -1.0511   -0.1520 H   0  0  0  0  0  0  0  0  0  0  0  0
    5.0886    0.1300    1.1301 H   0  0  0  0  0  0  0  0  0  0  0  0
    4.0545    1.6293   -0.6069 H   0  0  0  0  0  0  0  0  0  0  0  0
    4.4072    0.4464   -1.8436 H   0  0  0  0  0  0  0  0  0  0  0  0
    2.6096   -0.0235    0.6000 H   0  0  0  0  0  0  0  0  0  0  0  0
    2.9902   -1.2460   -0.6339 H   0  0  0  0  0  0  0  0  0  0  0  0
    1.6962    1.3598   -1.3072 H   0  0  0  0  0  0  0  0  0  0  0  0
   -2.2400    2.1988   -1.3746 H   0  0  0  0  0  0  0  0  0  0  0  0
   -5.0063    2.4124   -1.9339 H   0  0  0  0  0  0  0  0  0  0  0  0
   -6.9352    3.0568   -0.5300 H   0  0  0  0  0  0  0  0  0  0  0  0
   -6.8775    2.6803    1.9245 H   0  0  0  0  0  0  0  0  0  0  0  0
   -4.8490    1.6755    2.9686 H   0  0  0  0  0  0  0  0  0  0  0  0
   -4.1350   -1.5226   -0.2084 H   0  0  0  0  0  0  0  0  0  0  0  0
   -0.8962   -4.9413   -0.4796 H   0  0  0  0  0  0  0  0  0  0  0  0
   -0.8163   -4.5106    1.2618 H   0  0  0  0  0  0  0  0  0  0  0  0
    0.4668   -3.9653    0.1440 H   0  0  0  0  0  0  0  0  0  0  0  0
  1  2  1  0
  2  3  1  0
  3  4  1  0
  4  5  1  0
  5  6  1  0
  6  7  1  0
  7  8  2  0
  8  9  1  0
  9 10  1  0
 10 11  1  0
 11 12  2  0
 12 13  1  0
 13 14  2  0
 14 15  1  0
 15 16  2  0
 16 17  1  0
  9 18  2  0
 18 19  1  0
 19 20  2  0
 20 21  1  0
 21 22  1  0
 21 23  1  0
 23 24  2  0
 24  7  1  0
 16 11  1  0
 23 18  1  0
  1 25  1  0
  1 26  1  0
  1 27  1  0
  3 28  1  0
  3 29  1  0
  4 30  1  0
  4 31  1  0
  5 32  1  0
  5 33  1  0
  6 34  1  0
 10 35  1  0
 12 36  1  0
 13 37  1  0
 14 38  1  0
 15 39  1  0
 19 40  1  0
 22 41  1  0
 22 42  1  0
 22 43  1  0
M  END
>  <ScrubInfo>  (1) 
{"isomerGroup": 0, "isomerId": 0, "confId": 0, "nr_conformers:": 1, "nr_isomers:": 9}

$$$$
_i1
     RDKit          3D

 43 45  0  0  0  0  0  0  0  0999 V2000
   -0.1029   -0.4649    0.5764 N   0  0  0  0  0  0  0  0  0  0  0  0
    1.2428   -0.2956    0.8362 C   0  0  0  0  0  0  0  0  0  0  0  0
    2.0000   -1.3339    1.3461 N   0  0  0  0  0  0  0  0  0  0  0  0
    3.2028   -1.8586    0.8098 C   0  0  0  0  0  0  0  0  0  0  0  0
    3.9328   -2.7533    1.6102 C   0  0  0  0  0  0  0  0  0  0  0  0
    5.1476   -3.2918    1.1727 C   0  0  0  0  0  0  0  0  0  0  0  0
    5.6588   -2.9417   -0.0746 C   0  0  0  0  0  0  0  0  0  0  0  0
    4.9547   -2.0533   -0.8825 C   0  0  0  0  0  0  0  0  0  0  0  0
    3.7443   -1.5192   -0.4403 C   0  0  0  0  0  0  0  0  0  0  0  0
    3.0952   -0.6886   -1.2695 F   0  0  0  0  0  0  0  0  0  0  0  0
    1.7095    0.9421    0.6260 C   0  0  0  0  0  0  0  0  0  0  0  0
    2.9782    1.6663    0.7573 C   0  0  0  0  0  0  0  0  0  0  0  0
    2.8926    2.9227    0.3960 N   0  0  0  0  0  0  0  0  0  0  0  0
    1.5457    3.1203    0.0491 N   0  0  0  0  0  0  0  0  0  0  0  0
    1.1823    4.3036   -0.6913 C   0  0  0  0  0  0  0  0  0  0  0  0
    0.7759    1.9700    0.1163 C   0  0  0  0  0  0  0  0  0  0  0  0
   -0.4644    1.7771   -0.1829 N   0  0  0  0  0  0  0  0  0  0  0  0
   -0.9164    0.4937    0.0266 C   0  0  0  0  0  0  0  0  0  0  0  0
   -2.1250    0.1616   -0.2940 N   0  0  0  0  0  0  0  0  0  0  0  0
   -2.9625    1.2111   -0.8793 C   0  0  0  0  0  0  0  0  0  0  0  0
   -4.3413    0.6321   -1.1839 C   0  0  0  0  0  0  0  0  0  0  0  0
   -5.0991    0.2486    0.0850 C   0  0  0  0  0  0  0  0  0  0  0  0
   -6.4478   -0.1298   -0.2053 O   0  0  0  0  0  0  0  0  0  0  0  0
   -6.5580   -1.4545   -0.7077 C   0  0  0  0  0  0  0  0  0  0  0  0
   -0.4852   -1.3970    0.5903 H   0  0  0  0  0  0  0  0  0  0  0  0
    1.4301   -2.0779    1.7392 H   0  0  0  0  0  0  0  0  0  0  0  0
    3.5647   -3.0286    2.5965 H   0  0  0  0  0  0  0  0  0  0  0  0
    5.6967   -3.9807    1.8108 H   0  0  0  0  0  0  0  0  0  0  0  0
    6.6031   -3.3589   -0.4158 H   0  0  0  0  0  0  0  0  0  0  0  0
    5.3362   -1.7719   -1.8594 H   0  0  0  0  0  0  0  0  0  0  0  0
    3.8865    1.1645    1.1135 H   0  0  0  0  0  0  0  0  0  0  0  0
    1.7758    5.1635   -0.3640 H   0  0  0  0  0  0  0  0  0  0  0  0
    1.3544    4.1512   -1.7613 H   0  0  0  0  0  0  0  0  0  0  0  0
    0.1266    4.5503   -0.5397 H   0  0  0  0  0  0  0  0  0  0  0  0
   -2.5231    1.5664   -1.8195 H   0  0  0  0  0  0  0  0  0  0  0  0
   -3.0659    2.0624   -0.1955 H   0  0  0  0  0  0  0  0  0  0  0  0
   -4.2398   -0.2393   -1.8409 H   0  0  0  0  0  0  0  0  0  0  0  0
   -4.9311    1.3680   -1.7440 H   0  0  0  0  0  0  0  0  0  0  0  0
   -4.5948   -0.5505    0.6405 H   0  0  0  0  0  0  0  0  0  0  0  0
   -5.1577    1.1178    0.7493 H   0  0  0  0  0  0  0  0  0  0  0  0
   -6.0738   -1.5462   -1.6834 H   0  0  0  0  0  0  0  0  0  0  0  0
   -6.1288   -2.1727   -0.0026 H   0  0  0  0  0  0  0  0  0  0  0  0
   -7.6200   -1.6845   -0.8311 H   0  0  0  0  0  0  0  0  0  0  0  0
  1  2  1  0
  2  3  1  0
  3  4  1  0
  4  5  2  0
  5  6  1  0
  6  7  2  0
  7  8  1  0
  8  9  2  0
  9 10  1  0
  2 11  2  0
 11 12  1  0
 12 13  2  0
 13 14  1  0
 14 15  1  0
 14 16  1  0
 16 17  2  0
 17 18  1  0
 18 19  2  3
 19 20  1  0
 20 21  1  0
 21 22  1  0
 22 23  1  0
 23 24  1  0
 18  1  1  0
  9  4  1  0
 16 11  1  0
  1 25  1  0
  3 26  1  0
  5 27  1  0
  6 28  1  0
  7 29  1  0
  8 30  1  0
 12 31  1  0
 15 32  1  0
 15 33  1  0
 15 34  1  0
 20 35  1  0
 20 36  1  0
 21 37  1  0
 21 38  1  0
 22 39  1  0
 22 40  1  0
 24 41  1  0
 24 42  1  0
 24 43  1  0
M  END
>  <ScrubInfo>  (2) 
{"isomerGroup": 0, "isomerId": 1, "confId": 0, "nr_conformers:": 1, "nr_isomers:": 9}

$$$$
_i2
     RDKit          3D

 43 45  0  0  0  0  0  0  0  0999 V2000
   -0.0323   -0.6783    1.1142 N   0  0  0  0  0  0  0  0  0  0  0  0
    0.9340    0.2934    1.1508 C   0  0  0  0  0  0  0  0  0  0  0  0
    2.1084   -0.0369    1.7627 N   0  0  0  0  0  0  0  0  0  0  0  0
    2.8174   -1.2934    1.5599 C   0  0  0  0  0  0  0  0  0  0  0  0
    3.1961   -1.5242    0.0963 C   0  0  0  0  0  0  0  0  0  0  0  0
    4.1480   -0.4736   -0.4648 C   0  0  0  0  0  0  0  0  0  0  0  0
    5.3307   -0.4375    0.3318 O   0  0  0  0  0  0  0  0  0  0  0  0
    6.2645    0.5151   -0.1622 C   0  0  0  0  0  0  0  0  0  0  0  0
    0.7873    1.4912    0.6426 N   0  0  0  0  0  0  0  0  0  0  0  0
   -0.4362    1.6402    0.0596 C   0  0  0  0  0  0  0  0  0  0  0  0
   -1.4684    0.7175   -0.0333 C   0  0  0  0  0  0  0  0  0  0  0  0
   -2.4847    1.4043   -0.7206 C   0  0  0  0  0  0  0  0  0  0  0  0
   -2.1384    2.6562   -1.0465 N   0  0  0  0  0  0  0  0  0  0  0  0
   -0.8828    2.7740   -0.5587 N   0  0  0  0  0  0  0  0  0  0  0  0
   -0.1773    4.0202   -0.7199 C   0  0  0  0  0  0  0  0  0  0  0  0
   -1.2866   -0.5951    0.5570 C   0  0  0  0  0  0  0  0  0  0  0  0
   -2.1211   -1.5878    0.6155 N   0  0  0  0  0  0  0  0  0  0  0  0
   -3.3855   -1.5299    0.0182 C   0  0  0  0  0  0  0  0  0  0  0  0
   -4.5014   -1.1861    0.7873 C   0  0  0  0  0  0  0  0  0  0  0  0
   -5.7760   -1.1570    0.2134 C   0  0  0  0  0  0  0  0  0  0  0  0
   -5.9471   -1.4874   -1.1320 C   0  0  0  0  0  0  0  0  0  0  0  0
   -4.8450   -1.8538   -1.9032 C   0  0  0  0  0  0  0  0  0  0  0  0
   -3.5782   -1.8803   -1.3247 C   0  0  0  0  0  0  0  0  0  0  0  0
   -2.5299   -2.2338   -2.0846 F   0  0  0  0  0  0  0  0  0  0  0  0
    0.1320   -1.5219    1.6368 H   0  0  0  0  0  0  0  0  0  0  0  0
    2.7458    0.7569    1.7358 H   0  0  0  0  0  0  0  0  0  0  0  0
    2.2012   -2.1281    1.9124 H   0  0  0  0  0  0  0  0  0  0  0  0
    3.7135   -1.2926    2.1904 H   0  0  0  0  0  0  0  0  0  0  0  0
    2.2982   -1.5676   -0.5306 H   0  0  0  0  0  0  0  0  0  0  0  0
    3.6818   -2.5059    0.0319 H   0  0  0  0  0  0  0  0  0  0  0  0
    4.4117   -0.7388   -1.4953 H   0  0  0  0  0  0  0  0  0  0  0  0
    3.6761    0.5152   -0.4724 H   0  0  0  0  0  0  0  0  0  0  0  0
    7.1461    0.4995    0.4840 H   0  0  0  0  0  0  0  0  0  0  0  0
    6.5721    0.2576   -1.1802 H   0  0  0  0  0  0  0  0  0  0  0  0
    5.8328    1.5204   -0.1408 H   0  0  0  0  0  0  0  0  0  0  0  0
   -3.4715    1.0677   -1.0045 H   0  0  0  0  0  0  0  0  0  0  0  0
   -0.7047    4.7883   -0.1487 H   0  0  0  0  0  0  0  0  0  0  0  0
   -0.1657    4.2753   -1.7827 H   0  0  0  0  0  0  0  0  0  0  0  0
    0.8475    3.9232   -0.3549 H   0  0  0  0  0  0  0  0  0  0  0  0
   -4.3752   -0.9396    1.8383 H   0  0  0  0  0  0  0  0  0  0  0  0
   -6.6359   -0.8808    0.8194 H   0  0  0  0  0  0  0  0  0  0  0  0
   -6.9394   -1.4654   -1.5762 H   0  0  0  0  0  0  0  0  0  0  0  0
   -4.9618   -2.1206   -2.9487 H   0  0  0  0  0  0  0  0  0  0  0  0
  1  2  1  0
  2  3  1  0
  3  4  1  0
  4  5  1  0
  5  6  1  0
  6  7  1  0
  7  8  1  0
  2  9  2  0
  9 10  1  0
 10 11  2  0
 11 12  1  0
 12 13  2  0
 13 14  1  0
 14 15  1  0
 11 16  1  0
 16 17  2  3
 17 18  1  0
 18 19  2  0
 19 20  1  0
 20 21  2  0
 21 22  1  0
 22 23  2  0
 23 24  1  0
 16  1  1  0
 23 18  1  0
 14 10  1  0
  1 25  1  0
  3 26  1  0
  4 27  1  0
  4 28  1  0
  5 29  1  0
  5 30  1  0
  6 31  1  0
  6 32  1  0
  8 33  1  0
  8 34  1  0
  8 35  1  0
 12 36  1  0
 15 37  1  0
 15 38  1  0
 15 39  1  0
 19 40  1  0
 20 41  1  0
 21 42  1  0
 22 43  1  0
M  END
>  <ScrubInfo>  (3) 
{"isomerGroup": 0, "isomerId": 2, "confId": 0, "nr_conformers:": 1, "nr_isomers:": 9}

$$$$
_i3
     RDKit          3D

 43 45  0  0  0  0  0  0  0  0999 V2000
    0.3659   -1.2044   -0.2394 N   0  0  0  0  0  0  0  0  0  0  0  0
    0.5717    0.1186   -0.6010 C   0  0  0  0  0  0  0  0  0  0  0  0
    1.7088    0.7141   -0.6836 N   0  0  0  0  0  0  0  0  0  0  0  0
    2.9302   -0.0150   -0.3758 C   0  0  0  0  0  0  0  0  0  0  0  0
    4.1144    0.9298   -0.5548 C   0  0  0  0  0  0  0  0  0  0  0  0
    5.4333    0.2338   -0.2456 C   0  0  0  0  0  0  0  0  0  0  0  0
    6.4977    1.1647   -0.4336 O   0  0  0  0  0  0  0  0  0  0  0  0
    7.7637    0.5811   -0.1593 C   0  0  0  0  0  0  0  0  0  0  0  0
   -0.4920    0.9487   -0.9246 N   0  0  0  0  0  0  0  0  0  0  0  0
   -1.7102    0.4909   -0.8640 C   0  0  0  0  0  0  0  0  0  0  0  0
   -2.8021    1.2568   -1.1899 N   0  0  0  0  0  0  0  0  0  0  0  0
   -3.8791    1.5117   -0.2965 C   0  0  0  0  0  0  0  0  0  0  0  0
   -5.0894    1.9636   -0.8433 C   0  0  0  0  0  0  0  0  0  0  0  0
   -6.1742    2.2806   -0.0200 C   0  0  0  0  0  0  0  0  0  0  0  0
   -6.0577    2.1710    1.3647 C   0  0  0  0  0  0  0  0  0  0  0  0
   -4.8534    1.7535    1.9265 C   0  0  0  0  0  0  0  0  0  0  0  0
   -3.7754    1.4386    1.1012 C   0  0  0  0  0  0  0  0  0  0  0  0
   -2.6228    1.0771    1.6835 F   0  0  0  0  0  0  0  0  0  0  0  0
   -1.9649   -0.8897   -0.5263 C   0  0  0  0  0  0  0  0  0  0  0  0
   -3.0671   -1.7512   -0.4260 C   0  0  0  0  0  0  0  0  0  0  0  0
   -2.7112   -2.9952   -0.0664 N   0  0  0  0  0  0  0  0  0  0  0  0
   -1.3634   -2.9211    0.0632 N   0  0  0  0  0  0  0  0  0  0  0  0
   -0.6324   -4.1007    0.4491 C   0  0  0  0  0  0  0  0  0  0  0  0
   -0.8916   -1.6791   -0.2202 C   0  0  0  0  0  0  0  0  0  0  0  0
    1.1789   -1.7579   -0.0209 H   0  0  0  0  0  0  0  0  0  0  0  0
    2.9090   -0.3793    0.6583 H   0  0  0  0  0  0  0  0  0  0  0  0
    3.0451   -0.8727   -1.0493 H   0  0  0  0  0  0  0  0  0  0  0  0
    4.0014    1.8089    0.0926 H   0  0  0  0  0  0  0  0  0  0  0  0
    4.1365    1.3226   -1.5794 H   0  0  0  0  0  0  0  0  0  0  0  0
    5.4394   -0.1216    0.7914 H   0  0  0  0  0  0  0  0  0  0  0  0
    5.5757   -0.6219   -0.9157 H   0  0  0  0  0  0  0  0  0  0  0  0
    8.5349    1.3391   -0.3205 H   0  0  0  0  0  0  0  0  0  0  0  0
    7.8141    0.2470    0.8815 H   0  0  0  0  0  0  0  0  0  0  0  0
    7.9527   -0.2590   -0.8345 H   0  0  0  0  0  0  0  0  0  0  0  0
   -2.4555    2.1614   -1.5077 H   0  0  0  0  0  0  0  0  0  0  0  0
   -5.1977    2.0568   -1.9221 H   0  0  0  0  0  0  0  0  0  0  0  0
   -7.1100    2.6158   -0.4617 H   0  0  0  0  0  0  0  0  0  0  0  0
   -6.9007    2.4190    2.0050 H   0  0  0  0  0  0  0  0  0  0  0  0
   -4.7404    1.6784    3.0036 H   0  0  0  0  0  0  0  0  0  0  0  0
   -4.1137   -1.5372   -0.5989 H   0  0  0  0  0  0  0  0  0  0  0  0
   -1.0501   -4.4752    1.3872 H   0  0  0  0  0  0  0  0  0  0  0  0
   -0.7410   -4.8462   -0.3426 H   0  0  0  0  0  0  0  0  0  0  0  0
    0.4227   -3.8564    0.5883 H   0  0  0  0  0  0  0  0  0  0  0  0
  1  2  1  0
  2  3  2  3
  3  4  1  0
  4  5  1  0
  5  6  1  0
  6  7  1  0
  7  8  1  0
  2  9  1  0
  9 10  2  0
 10 11  1  0
 11 12  1  0
 12 13  2  0
 13 14  1  0
 14 15  2  0
 15 16  1  0
 16 17  2  0
 17 18  1  0
 10 19  1  0
 19 20  1  0
 20 21  2  0
 21 22  1  0
 22 23  1  0
 22 24  1  0
 24  1  1  0
 17 12  1  0
 24 19  2  0
  1 25  1  0
  4 26  1  0
  4 27  1  0
  5 28  1  0
  5 29  1  0
  6 30  1  0
  6 31  1  0
  8 32  1  0
  8 33  1  0
  8 34  1  0
 11 35  1  0
 13 36  1  0
 14 37  1  0
 15 38  1  0
 16 39  1  0
 20 40  1  0
 23 41  1  0
 23 42  1  0
 23 43  1  0
M  END
>  <ScrubInfo>  (4) 
{"isomerGroup": 0, "isomerId": 3, "confId": 0, "nr_conformers:": 1, "nr_isomers:": 9}

$$$$
_i4
     RDKit          3D

 43 45  0  0  0  0  0  0  0  0999 V2000
   -2.6585   -3.9845   -1.0595 N   0  0  0  0  0  0  0  0  0  0  0  0
   -3.2185   -2.7657   -0.6882 C   0  0  0  0  0  0  0  0  0  0  0  0
   -2.3028   -1.8035   -0.5184 C   0  0  0  0  0  0  0  0  0  0  0  0
   -2.2858   -0.3990   -0.1828 C   0  0  0  0  0  0  0  0  0  0  0  0
   -3.3692    0.2588    0.0910 N   0  0  0  0  0  0  0  0  0  0  0  0
   -3.2512    1.6168    0.4357 C   0  0  0  0  0  0  0  0  0  0  0  0
   -3.5953    2.5960   -0.5014 C   0  0  0  0  0  0  0  0  0  0  0  0
   -3.5105    3.9535   -0.1762 C   0  0  0  0  0  0  0  0  0  0  0  0
   -3.0898    4.3443    1.0958 C   0  0  0  0  0  0  0  0  0  0  0  0
   -2.7587    3.3776    2.0443 C   0  0  0  0  0  0  0  0  0  0  0  0
   -2.8457    2.0268    1.7128 C   0  0  0  0  0  0  0  0  0  0  0  0
   -2.5354    1.1152    2.6486 F   0  0  0  0  0  0  0  0  0  0  0  0
   -1.0404    0.1720   -0.2032 N   0  0  0  0  0  0  0  0  0  0  0  0
    0.0371   -0.5124   -0.4620 C   0  0  0  0  0  0  0  0  0  0  0  0
    1.2062    0.1918   -0.4403 N   0  0  0  0  0  0  0  0  0  0  0  0
    2.3956   -0.2358   -1.1438 C   0  0  0  0  0  0  0  0  0  0  0  0
    3.5875    0.6321   -0.7594 C   0  0  0  0  0  0  0  0  0  0  0  0
    4.0025    0.4369    0.6944 C   0  0  0  0  0  0  0  0  0  0  0  0
    5.1659    1.2315    0.9331 O   0  0  0  0  0  0  0  0  0  0  0  0
    5.6061    1.1190    2.2805 C   0  0  0  0  0  0  0  0  0  0  0  0
    0.0846   -1.8532   -0.7491 N   0  0  0  0  0  0  0  0  0  0  0  0
   -1.0314   -2.4949   -0.7601 C   0  0  0  0  0  0  0  0  0  0  0  0
   -1.2726   -3.8499   -0.9949 N   0  0  0  0  0  0  0  0  0  0  0  0
   -0.4473   -4.6074   -1.9148 C   0  0  0  0  0  0  0  0  0  0  0  0
   -3.0551   -4.7777   -0.5499 H   0  0  0  0  0  0  0  0  0  0  0  0
   -4.2891   -2.6813   -0.5644 H   0  0  0  0  0  0  0  0  0  0  0  0
   -3.9283    2.2947   -1.4906 H   0  0  0  0  0  0  0  0  0  0  0  0
   -3.7759    4.7039   -0.9167 H   0  0  0  0  0  0  0  0  0  0  0  0
   -3.0253    5.3995    1.3483 H   0  0  0  0  0  0  0  0  0  0  0  0
   -2.4368    3.6625    3.0404 H   0  0  0  0  0  0  0  0  0  0  0  0
    1.0301    1.1903   -0.4296 H   0  0  0  0  0  0  0  0  0  0  0  0
    2.2228   -0.1523   -2.2228 H   0  0  0  0  0  0  0  0  0  0  0  0
    2.6240   -1.2853   -0.9247 H   0  0  0  0  0  0  0  0  0  0  0  0
    3.3693    1.6926   -0.9384 H   0  0  0  0  0  0  0  0  0  0  0  0
    4.4377    0.3879   -1.4086 H   0  0  0  0  0  0  0  0  0  0  0  0
    4.2376   -0.6165    0.8857 H   0  0  0  0  0  0  0  0  0  0  0  0
    3.2015    0.7542    1.3716 H   0  0  0  0  0  0  0  0  0  0  0  0
    6.4964    1.7412    2.4047 H   0  0  0  0  0  0  0  0  0  0  0  0
    4.8322    1.4750    2.9673 H   0  0  0  0  0  0  0  0  0  0  0  0
    5.8688    0.0823    2.5124 H   0  0  0  0  0  0  0  0  0  0  0  0
   -0.5629   -4.2355   -2.9382 H   0  0  0  0  0  0  0  0  0  0  0  0
   -0.7277   -5.6655   -1.8953 H   0  0  0  0  0  0  0  0  0  0  0  0
    0.6083   -4.5363   -1.6334 H   0  0  0  0  0  0  0  0  0  0  0  0
  1  2  1  0
  2  3  2  0
  3  4  1  0
  4  5  2  3
  5  6  1  0
  6  7  2  0
  7  8  1  0
  8  9  2  0
  9 10  1  0
 10 11  2  0
 11 12  1  0
  4 13  1  0
 13 14  2  0
 14 15  1  0
 15 16  1  0
 16 17  1  0
 17 18  1  0
 18 19  1  0
 19 20  1  0
 14 21  1  0
 21 22  2  0
 22 23  1  0
 23 24  1  0
 23  1  1  0
 22  3  1  0
 11  6  1  0
  1 25  1  0
  2 26  1  0
  7 27  1  0
  8 28  1  0
  9 29  1  0
 10 30  1  0
 15 31  1  0
 16 32  1  0
 16 33  1  0
 17 34  1  0
 17 35  1  0
 18 36  1  0
 18 37  1  0
 20 38  1  0
 20 39  1  0
 20 40  1  0
 24 41  1  0
 24 42  1  0
 24 43  1  0
M  END
>  <ScrubInfo>  (5) 
{"isomerGroup": 0, "isomerId": 4, "confId": 0, "nr_conformers:": 1, "nr_isomers:": 9}

$$$$
_i5
     RDKit          3D

 43 45  0  0  0  0  0  0  0  0999 V2000
    0.3033   -1.4759   -1.2325 N   0  0  0  0  0  0  0  0  0  0  0  0
   -0.0513   -0.2145   -0.8116 C   0  0  0  0  0  0  0  0  0  0  0  0
    0.9590    0.7054   -0.8002 N   0  0  0  0  0  0  0  0  0  0  0  0
    2.2269    0.4460   -0.1234 C   0  0  0  0  0  0  0  0  0  0  0  0
    3.1358    1.6663   -0.2647 C   0  0  0  0  0  0  0  0  0  0  0  0
    4.5281    1.4074    0.2970 C   0  0  0  0  0  0  0  0  0  0  0  0
    4.4221    1.0645    1.6756 O   0  0  0  0  0  0  0  0  0  0  0  0
    5.6985    0.8582    2.2677 C   0  0  0  0  0  0  0  0  0  0  0  0
   -1.2499    0.1610   -0.4557 N   0  0  0  0  0  0  0  0  0  0  0  0
   -2.2801   -0.7716   -0.4662 C   0  0  0  0  0  0  0  0  0  0  0  0
   -3.4984   -0.5191   -0.1078 N   0  0  0  0  0  0  0  0  0  0  0  0
   -3.7889    0.7709    0.3679 C   0  0  0  0  0  0  0  0  0  0  0  0
   -4.5038    1.6558   -0.4454 C   0  0  0  0  0  0  0  0  0  0  0  0
   -4.8316    2.9363    0.0113 C   0  0  0  0  0  0  0  0  0  0  0  0
   -4.4556    3.3405    1.2931 C   0  0  0  0  0  0  0  0  0  0  0  0
   -3.7559    2.4627    2.1197 C   0  0  0  0  0  0  0  0  0  0  0  0
   -3.4327    1.1883    1.6573 C   0  0  0  0  0  0  0  0  0  0  0  0
   -2.7709    0.3571    2.4784 F   0  0  0  0  0  0  0  0  0  0  0  0
   -1.9604   -2.0972   -0.9310 C   0  0  0  0  0  0  0  0  0  0  0  0
   -2.6669   -3.2887   -1.1409 C   0  0  0  0  0  0  0  0  0  0  0  0
   -1.8820   -4.2671   -1.6236 N   0  0  0  0  0  0  0  0  0  0  0  0
   -0.6588   -3.6862   -1.7116 N   0  0  0  0  0  0  0  0  0  0  0  0
    0.4532   -4.4654   -2.1913 C   0  0  0  0  0  0  0  0  0  0  0  0
   -0.6777   -2.3920   -1.3003 C   0  0  0  0  0  0  0  0  0  0  0  0
    1.2096   -1.5838   -1.6644 H   0  0  0  0  0  0  0  0  0  0  0  0
    0.5589    1.5870   -0.4798 H   0  0  0  0  0  0  0  0  0  0  0  0
    2.7189   -0.4268   -0.5663 H   0  0  0  0  0  0  0  0  0  0  0  0
    2.0366    0.2280    0.9337 H   0  0  0  0  0  0  0  0  0  0  0  0
    3.2197    1.9550   -1.3193 H   0  0  0  0  0  0  0  0  0  0  0  0
    2.6791    2.5107    0.2667 H   0  0  0  0  0  0  0  0  0  0  0  0
    5.0117    0.5891   -0.2491 H   0  0  0  0  0  0  0  0  0  0  0  0
    5.1381    2.3115    0.1887 H   0  0  0  0  0  0  0  0  0  0  0  0
    6.2963    1.7733    2.2171 H   0  0  0  0  0  0  0  0  0  0  0  0
    5.5519    0.5941    3.3184 H   0  0  0  0  0  0  0  0  0  0  0  0
    6.2227    0.0368    1.7700 H   0  0  0  0  0  0  0  0  0  0  0  0
   -4.8034    1.3418   -1.4415 H   0  0  0  0  0  0  0  0  0  0  0  0
   -5.3832    3.6150   -0.6344 H   0  0  0  0  0  0  0  0  0  0  0  0
   -4.7124    4.3352    1.6481 H   0  0  0  0  0  0  0  0  0  0  0  0
   -3.4623    2.7564    3.1219 H   0  0  0  0  0  0  0  0  0  0  0  0
   -3.7174   -3.4864   -0.9698 H   0  0  0  0  0  0  0  0  0  0  0  0
    0.5430   -5.3601   -1.5700 H   0  0  0  0  0  0  0  0  0  0  0  0
    0.2572   -4.7397   -3.2309 H   0  0  0  0  0  0  0  0  0  0  0  0
    1.3729   -3.8799   -2.1282 H   0  0  0  0  0  0  0  0  0  0  0  0
  1  2  1  0
  2  3  1  0
  3  4  1  0
  4  5  1  0
  5  6  1  0
  6  7  1  0
  7  8  1  0
  2  9  2  0
  9 10  1  0
 10 11  2  3
 11 12  1  0
 12 13  2  0
 13 14  1  0
 14 15  2  0
 15 16  1  0
 16 17  2  0
 17 18  1  0
 10 19  1  0
 19 20  1  0
 20 21  2  0
 21 22  1  0
 22 23  1  0
 22 24  1  0
 24  1  1  0
 17 12  1  0
 24 19  2  0
  1 25  1  0
  3 26  1  0
  4 27  1  0
  4 28  1  0
  5 29  1  0
  5 30  1  0
  6 31  1  0
  6 32  1  0
  8 33  1  0
  8 34  1  0
  8 35  1  0
 13 36  1  0
 14 37  1  0
 15 38  1  0
 16 39  1  0
 20 40  1  0
 23 41  1  0
 23 42  1  0
 23 43  1  0
M  END
>  <ScrubInfo>  (6) 
{"isomerGroup": 0, "isomerId": 5, "confId": 0, "nr_conformers:": 1, "nr_isomers:": 9}

$$$$
_i6
     RDKit          3D

 43 45  0  0  0  0  0  0  0  0999 V2000
   -2.4359    4.2379    0.7775 N   0  0  0  0  0  0  0  0  0  0  0  0
   -2.7021    2.9089    1.0905 C   0  0  0  0  0  0  0  0  0  0  0  0
   -1.7847    2.0636    0.6008 C   0  0  0  0  0  0  0  0  0  0  0  0
   -1.5002    0.6290    0.6047 C   0  0  0  0  0  0  0  0  0  0  0  0
   -2.3531   -0.2585    1.2455 N   0  0  0  0  0  0  0  0  0  0  0  0
   -2.5464   -1.5777    0.7663 C   0  0  0  0  0  0  0  0  0  0  0  0
   -2.6649   -2.6215    1.6924 C   0  0  0  0  0  0  0  0  0  0  0  0
   -2.9297   -3.9265    1.2652 C   0  0  0  0  0  0  0  0  0  0  0  0
   -3.1100   -4.1980   -0.0912 C   0  0  0  0  0  0  0  0  0  0  0  0
   -3.0396   -3.1620   -1.0202 C   0  0  0  0  0  0  0  0  0  0  0  0
   -2.7740   -1.8647   -0.5881 C   0  0  0  0  0  0  0  0  0  0  0  0
   -2.7899   -0.8749   -1.4945 F   0  0  0  0  0  0  0  0  0  0  0  0
   -0.4079    0.2288    0.0149 N   0  0  0  0  0  0  0  0  0  0  0  0
    0.4201    1.1519   -0.5873 C   0  0  0  0  0  0  0  0  0  0  0  0
    1.5294    0.7637   -1.1121 N   0  0  0  0  0  0  0  0  0  0  0  0
    1.8516   -0.6605   -1.0266 C   0  0  0  0  0  0  0  0  0  0  0  0
    3.2160   -0.8923   -1.6771 C   0  0  0  0  0  0  0  0  0  0  0  0
    4.3714   -0.3615   -0.8285 C   0  0  0  0  0  0  0  0  0  0  0  0
    4.5111   -1.0624    0.4101 O   0  0  0  0  0  0  0  0  0  0  0  0
    5.1836   -2.3064    0.2801 C   0  0  0  0  0  0  0  0  0  0  0  0
    0.1964    2.5036   -0.7061 N   0  0  0  0  0  0  0  0  0  0  0  0
   -0.8693    2.9536   -0.1443 C   0  0  0  0  0  0  0  0  0  0  0  0
   -1.3550    4.2610   -0.0983 N   0  0  0  0  0  0  0  0  0  0  0  0
   -0.4435    5.3895   -0.0741 C   0  0  0  0  0  0  0  0  0  0  0  0
   -3.2606    4.7643    0.4796 H   0  0  0  0  0  0  0  0  0  0  0  0
   -3.5821    2.6799    1.6727 H   0  0  0  0  0  0  0  0  0  0  0  0
   -3.2422    0.1331    1.5349 H   0  0  0  0  0  0  0  0  0  0  0  0
   -2.5223   -2.4261    2.7527 H   0  0  0  0  0  0  0  0  0  0  0  0
   -2.9921   -4.7321    1.9932 H   0  0  0  0  0  0  0  0  0  0  0  0
   -3.3136   -5.2134   -0.4220 H   0  0  0  0  0  0  0  0  0  0  0  0
   -3.1992   -3.3511   -2.0769 H   0  0  0  0  0  0  0  0  0  0  0  0
    1.8665   -1.0098    0.0126 H   0  0  0  0  0  0  0  0  0  0  0  0
    1.1059   -1.2436   -1.5811 H   0  0  0  0  0  0  0  0  0  0  0  0
    3.3388   -1.9677   -1.8426 H   0  0  0  0  0  0  0  0  0  0  0  0
    3.2425   -0.4070   -2.6602 H   0  0  0  0  0  0  0  0  0  0  0  0
    5.3118   -0.4113   -1.3901 H   0  0  0  0  0  0  0  0  0  0  0  0
    4.2046    0.6931   -0.5849 H   0  0  0  0  0  0  0  0  0  0  0  0
    5.2963   -2.7386    1.2782 H   0  0  0  0  0  0  0  0  0  0  0  0
    4.6062   -3.0049   -0.3306 H   0  0  0  0  0  0  0  0  0  0  0  0
    6.1803   -2.1637   -0.1484 H   0  0  0  0  0  0  0  0  0  0  0  0
   -1.0013    6.3299   -0.1304 H   0  0  0  0  0  0  0  0  0  0  0  0
    0.1492    5.3911    0.8467 H   0  0  0  0  0  0  0  0  0  0  0  0
    0.2378    5.3535   -0.9302 H   0  0  0  0  0  0  0  0  0  0  0  0
  1  2  1  0
  2  3  2  0
  3  4  1  0
  4  5  1  0
  5  6  1  0
  6  7  2  0
  7  8  1  0
  8  9  2  0
  9 10  1  0
 10 11  2  0
 11 12  1  0
  4 13  2  0
 13 14  1  0
 14 15  2  3
 15 16  1  0
 16 17  1  0
 17 18  1  0
 18 19  1  0
 19 20  1  0
 14 21  1  0
 21 22  2  0
 22 23  1  0
 23 24  1  0
 23  1  1  0
 22  3  1  0
 11  6  1  0
  1 25  1  0
  2 26  1  0
  5 27  1  0
  7 28  1  0
  8 29  1  0
  9 30  1  0
 10 31  1  0
 16 32  1  0
 16 33  1  0
 17 34  1  0
 17 35  1  0
 18 36  1  0
 18 37  1  0
 20 38  1  0
 20 39  1  0
 20 40  1  0
 24 41  1  0
 24 42  1  0
 24 43  1  0
M  END
>  <ScrubInfo>  (7) 
{"isomerGroup": 0, "isomerId": 6, "confId": 0, "nr_conformers:": 1, "nr_isomers:": 9}

$$$$
_i7
     RDKit          3D

 43 45  0  0  0  0  0  0  0  0999 V2000
   -2.6812   -3.8764   -1.3562 N   0  0  0  0  0  0  0  0  0  0  0  0
   -3.2019   -2.6572   -0.9363 C   0  0  0  0  0  0  0  0  0  0  0  0
   -2.2554   -1.7454   -0.6846 C   0  0  0  0  0  0  0  0  0  0  0  0
   -2.1797   -0.3421   -0.2696 C   0  0  0  0  0  0  0  0  0  0  0  0
   -3.2794    0.3028   -0.0180 N   0  0  0  0  0  0  0  0  0  0  0  0
   -3.2082    1.6425    0.3990 C   0  0  0  0  0  0  0  0  0  0  0  0
   -3.6036    2.6515   -0.4830 C   0  0  0  0  0  0  0  0  0  0  0  0
   -3.5598    3.9936   -0.0935 C   0  0  0  0  0  0  0  0  0  0  0  0
   -3.1287    4.3381    1.1883 C   0  0  0  0  0  0  0  0  0  0  0  0
   -2.7452    3.3405    2.0831 C   0  0  0  0  0  0  0  0  0  0  0  0
   -2.7926    2.0059    1.6874 C   0  0  0  0  0  0  0  0  0  0  0  0
   -2.4048    1.0625    2.5594 F   0  0  0  0  0  0  0  0  0  0  0  0
   -0.8852    0.1099   -0.2196 N   0  0  0  0  0  0  0  0  0  0  0  0
    0.2445   -0.6103   -0.5043 C   0  0  0  0  0  0  0  0  0  0  0  0
    1.3854   -0.0045   -0.4293 N   0  0  0  0  0  0  0  0  0  0  0  0
    2.5796   -0.7921   -0.7412 C   0  0  0  0  0  0  0  0  0  0  0  0
    3.8141    0.0922   -0.5951 C   0  0  0  0  0  0  0  0  0  0  0  0
    4.0419    0.5394    0.8437 C   0  0  0  0  0  0  0  0  0  0  0  0
    5.2709    1.2686    0.8999 O   0  0  0  0  0  0  0  0  0  0  0  0
    5.5405    1.7331    2.2156 C   0  0  0  0  0  0  0  0  0  0  0  0
    0.1912   -1.9438   -0.8588 N   0  0  0  0  0  0  0  0  0  0  0  0
   -0.9819   -2.4919   -0.9296 C   0  0  0  0  0  0  0  0  0  0  0  0
   -1.2933   -3.8180   -1.2429 N   0  0  0  0  0  0  0  0  0  0  0  0
   -0.4780   -4.5774   -2.1712 C   0  0  0  0  0  0  0  0  0  0  0  0
   -3.1338   -4.6802   -0.9147 H   0  0  0  0  0  0  0  0  0  0  0  0
   -4.2718   -2.5335   -0.8440 H   0  0  0  0  0  0  0  0  0  0  0  0
   -3.9510    2.3876   -1.4788 H   0  0  0  0  0  0  0  0  0  0  0  0
   -3.8686    4.7694   -0.7906 H   0  0  0  0  0  0  0  0  0  0  0  0
   -3.0980    5.3823    1.4904 H   0  0  0  0  0  0  0  0  0  0  0  0
   -2.4127    3.5909    3.0855 H   0  0  0  0  0  0  0  0  0  0  0  0
   -0.7075    1.0684    0.0361 H   0  0  0  0  0  0  0  0  0  0  0  0
    2.5358   -1.1540   -1.7757 H   0  0  0  0  0  0  0  0  0  0  0  0
    2.6688   -1.6554   -0.0705 H   0  0  0  0  0  0  0  0  0  0  0  0
    3.7321    0.9751   -1.2415 H   0  0  0  0  0  0  0  0  0  0  0  0
    4.6972   -0.4566   -0.9451 H   0  0  0  0  0  0  0  0  0  0  0  0
    3.2226    1.1835    1.1824 H   0  0  0  0  0  0  0  0  0  0  0  0
    4.1095   -0.3314    1.5062 H   0  0  0  0  0  0  0  0  0  0  0  0
    6.4881    2.2781    2.2009 H   0  0  0  0  0  0  0  0  0  0  0  0
    4.7517    2.4131    2.5513 H   0  0  0  0  0  0  0  0  0  0  0  0
    5.6325    0.8909    2.9081 H   0  0  0  0  0  0  0  0  0  0  0  0
   -0.5322   -4.1483   -3.1772 H   0  0  0  0  0  0  0  0  0  0  0  0
   -0.8205   -5.6162   -2.2171 H   0  0  0  0  0  0  0  0  0  0  0  0
    0.5682   -4.5849   -1.8490 H   0  0  0  0  0  0  0  0  0  0  0  0
  1  2  1  0
  2  3  2  0
  3  4  1  0
  4  5  2  3
  5  6  1  0
  6  7  2  0
  7  8  1  0
  8  9  2  0
  9 10  1  0
 10 11  2  0
 11 12  1  0
  4 13  1  0
 13 14  1  0
 14 15  2  3
 15 16  1  0
 16 17  1  0
 17 18  1  0
 18 19  1  0
 19 20  1  0
 14 21  1  0
 21 22  2  0
 22 23  1  0
 23 24  1  0
 23  1  1  0
 22  3  1  0
 11  6  1  0
  1 25  1  0
  2 26  1  0
  7 27  1  0
  8 28  1  0
  9 29  1  0
 10 30  1  0
 13 31  1  0
 16 32  1  0
 16 33  1  0
 17 34  1  0
 17 35  1  0
 18 36  1  0
 18 37  1  0
 20 38  1  0
 20 39  1  0
 20 40  1  0
 24 41  1  0
 24 42  1  0
 24 43  1  0
M  END
>  <ScrubInfo>  (8) 
{"isomerGroup": 0, "isomerId": 7, "confId": 0, "nr_conformers:": 1, "nr_isomers:": 9}

$$$$
_i8
     RDKit          3D

 43 45  0  0  0  0  0  0  0  0999 V2000
    0.3597   -0.9327   -0.0972 N   0  0  0  0  0  0  0  0  0  0  0  0
    0.7324    0.3983   -0.1822 C   0  0  0  0  0  0  0  0  0  0  0  0
    1.9207    0.8805   -0.3212 N   0  0  0  0  0  0  0  0  0  0  0  0
    3.0486   -0.0413   -0.4029 C   0  0  0  0  0  0  0  0  0  0  0  0
    4.3258    0.7750   -0.5709 C   0  0  0  0  0  0  0  0  0  0  0  0
    5.5534   -0.1218   -0.6603 C   0  0  0  0  0  0  0  0  0  0  0  0
    6.7076    0.7009   -0.8198 O   0  0  0  0  0  0  0  0  0  0  0  0
    7.8976   -0.0707   -0.9078 C   0  0  0  0  0  0  0  0  0  0  0  0
   -0.3316    1.2689   -0.1042 N   0  0  0  0  0  0  0  0  0  0  0  0
   -1.6838    1.0578    0.0578 C   0  0  0  0  0  0  0  0  0  0  0  0
   -2.5143    2.0544    0.1237 N   0  0  0  0  0  0  0  0  0  0  0  0
   -3.8854    1.8743    0.3365 C   0  0  0  0  0  0  0  0  0  0  0  0
   -4.7636    1.9019   -0.7512 C   0  0  0  0  0  0  0  0  0  0  0  0
   -6.1406    1.7605   -0.5548 C   0  0  0  0  0  0  0  0  0  0  0  0
   -6.6529    1.6060    0.7344 C   0  0  0  0  0  0  0  0  0  0  0  0
   -5.7894    1.5998    1.8290 C   0  0  0  0  0  0  0  0  0  0  0  0
   -4.4186    1.7412    1.6255 C   0  0  0  0  0  0  0  0  0  0  0  0
   -3.6046    1.7283    2.6924 F   0  0  0  0  0  0  0  0  0  0  0  0
   -1.9788   -0.3647    0.1230 C   0  0  0  0  0  0  0  0  0  0  0  0
   -3.1187   -1.1812    0.2441 C   0  0  0  0  0  0  0  0  0  0  0  0
   -2.8259   -2.4904    0.2489 N   0  0  0  0  0  0  0  0  0  0  0  0
   -1.4820   -2.5198    0.1232 N   0  0  0  0  0  0  0  0  0  0  0  0
   -0.8047   -3.7917    0.1002 C   0  0  0  0  0  0  0  0  0  0  0  0
   -0.9431   -1.2723    0.0416 C   0  0  0  0  0  0  0  0  0  0  0  0
    1.0981   -1.6203   -0.1443 H   0  0  0  0  0  0  0  0  0  0  0  0
    3.1175   -0.6427    0.5114 H   0  0  0  0  0  0  0  0  0  0  0  0
    2.9312   -0.7148   -1.2603 H   0  0  0  0  0  0  0  0  0  0  0  0
    4.4423    1.4759    0.2657 H   0  0  0  0  0  0  0  0  0  0  0  0
    4.2612    1.4016   -1.4697 H   0  0  0  0  0  0  0  0  0  0  0  0
    5.6541   -0.7180    0.2540 H   0  0  0  0  0  0  0  0  0  0  0  0
    5.4668   -0.7980   -1.5187 H   0  0  0  0  0  0  0  0  0  0  0  0
    8.7429    0.6120   -1.0288 H   0  0  0  0  0  0  0  0  0  0  0  0
    8.0457   -0.6518    0.0075 H   0  0  0  0  0  0  0  0  0  0  0  0
    7.8590   -0.7367   -1.7751 H   0  0  0  0  0  0  0  0  0  0  0  0
   -0.0671    2.2427   -0.1484 H   0  0  0  0  0  0  0  0  0  0  0  0
   -4.3707    2.0370   -1.7556 H   0  0  0  0  0  0  0  0  0  0  0  0
   -6.8135    1.7783   -1.4091 H   0  0  0  0  0  0  0  0  0  0  0  0
   -7.7243    1.4990    0.8857 H   0  0  0  0  0  0  0  0  0  0  0  0
   -6.1718    1.4891    2.8386 H   0  0  0  0  0  0  0  0  0  0  0  0
   -4.1591   -0.9004    0.3279 H   0  0  0  0  0  0  0  0  0  0  0  0
   -0.5552   -4.0622    1.1289 H   0  0  0  0  0  0  0  0  0  0  0  0
   -1.4663   -4.5422   -0.3406 H   0  0  0  0  0  0  0  0  0  0  0  0
    0.1017   -3.7098   -0.5040 H   0  0  0  0  0  0  0  0  0  0  0  0
  1  2  1  0
  2  3  2  3
  3  4  1  0
  4  5  1  0
  5  6  1  0
  6  7  1  0
  7  8  1  0
  2  9  1  0
  9 10  1  0
 10 11  2  3
 11 12  1  0
 12 13  2  0
 13 14  1  0
 14 15  2  0
 15 16  1  0
 16 17  2  0
 17 18  1  0
 10 19  1  0
 19 20  1  0
 20 21  2  0
 21 22  1  0
 22 23  1  0
 22 24  1  0
 24  1  1  0
 17 12  1  0
 24 19  2  0
  1 25  1  0
  4 26  1  0
  4 27  1  0
  5 28  1  0
  5 29  1  0
  6 30  1  0
  6 31  1  0
  8 32  1  0
  8 33  1  0
  8 34  1  0
  9 35  1  0
 13 36  1  0
 14 37  1  0
 15 38  1  0
 16 39  1  0
 20 40  1  0
 23 41  1  0
 23 42  1  0
 23 43  1  0
M  END
>  <ScrubInfo>  (9) 
{"isomerGroup": 0, "isomerId": 8, "confId": 0, "nr_conformers:": 1, "nr_isomers:": 9}

$$$$
