REMARK SMILES COCCCNc1nc(Nc2ccccc2F)c2cnn(C)c2n1
REMARK SMILES IDX 5 1 4 2 3 3 2 4 1 5 6 6 7 8 8 9 24 10 9 11 23 12 18 13 21 14
REMARK SMILES IDX 19 15 20 16 22 17 10 18 11 20 12 21 16 22 13 23 15 24 14 25
REMARK SMILES IDX 17 26
REMARK H PARENT 6 7 10 19
ROOT
ATOM      1  C   UNL     1       2.857  -0.171  -0.459  1.00  0.00     0.118 C 
ENDROOT
BRANCH   1   2
ATOM      2  C   UNL     1       4.162   0.550  -0.779  1.00  0.00     0.050 C 
BRANCH   2   3
ATOM      3  C   UNL     1       5.311   0.011   0.063  1.00  0.00     0.161 C 
BRANCH   3   4
ATOM      4  O   UNL     1       6.489   0.749  -0.259  1.00  0.00    -0.385 OA
ATOM      5  C   UNL     1       7.614   0.292   0.480  1.00  0.00     0.194 C 
ENDBRANCH   3   4
ENDBRANCH   2   3
ENDBRANCH   1   2
BRANCH   1   6
ATOM      6  N   UNL     1       1.797   0.350  -1.304  1.00  0.00    -0.354 N 
ATOM      7  H   UNL     1       1.696   1.360  -1.307  1.00  0.00     0.163 HD
BRANCH   6   8
ATOM      8  C   UNL     1       0.530  -0.151  -1.020  1.00  0.00     0.226 A 
ATOM      9  N   UNL     1      -0.469   0.736  -1.184  1.00  0.00    -0.195 NA
ATOM     10  N   UNL     1       0.394  -1.423  -0.618  1.00  0.00    -0.193 NA
ATOM     11  C   UNL     1      -1.750   0.372  -0.928  1.00  0.00     0.147 A 
ATOM     12  C   UNL     1      -0.885  -1.765  -0.402  1.00  0.00     0.165 A 
ATOM     13  C   UNL     1      -1.989  -0.946  -0.534  1.00  0.00     0.082 A 
ATOM     14  N   UNL     1      -1.368  -2.986  -0.017  1.00  0.00    -0.250 N 
ATOM     15  C   UNL     1      -3.083  -1.776  -0.217  1.00  0.00     0.149 A 
ATOM     16  N   UNL     1      -2.716  -3.024   0.103  1.00  0.00    -0.179 NA
ATOM     17  C   UNL     1      -0.600  -4.177   0.244  1.00  0.00     0.176 C 
BRANCH  11  18
ATOM     18  N   UNL     1      -2.743   1.344  -1.142  1.00  0.00    -0.337 N 
ATOM     19  H   UNL     1      -2.240   2.199  -1.375  1.00  0.00     0.168 HD
BRANCH  18  20
ATOM     20  C   UNL     1      -3.836   1.635  -0.293  1.00  0.00     0.076 A 
ATOM     21  C   UNL     1      -4.967   2.239  -0.860  1.00  0.00     0.029 A 
ATOM     22  C   UNL     1      -3.812   1.467   1.100  1.00  0.00     0.146 A 
ATOM     23  C   UNL     1      -6.060   2.605  -0.069  1.00  0.00     0.002 A 
ATOM     24  C   UNL     1      -4.899   1.829   1.895  1.00  0.00     0.041 A 
ATOM     25  C   UNL     1      -6.028   2.395   1.309  1.00  0.00     0.003 A 
ATOM     26  F   UNL     1      -2.727   0.967   1.709  1.00  0.00    -0.205 F 
ENDBRANCH  18  20
ENDBRANCH  11  18
ENDBRANCH   6   8
ENDBRANCH   1   6
TORSDOF 7
