_i0
     RDKit          3D

 44 47  0  0  0  0  0  0  0  0999 V2000
    7.8296    0.2324    1.1257 C   0  0  0  0  0  0  0  0  0  0  0  0
    6.9912    0.0435   -0.0069 O   0  0  0  0  0  0  0  0  0  0  0  0
    5.6426    0.0612    0.2138 C   0  0  0  0  0  0  0  0  0  0  0  0
    4.8588   -0.1290   -0.9229 C   0  0  0  0  0  0  0  0  0  0  0  0
    3.4603   -0.1338   -0.8399 C   0  0  0  0  0  0  0  0  0  0  0  0
    2.8091    0.0496    0.3812 C   0  0  0  0  0  0  0  0  0  0  0  0
    1.4197    0.0614    0.5350 N   0  0  0  0  0  0  0  0  0  0  0  0
    0.3450   -0.0893   -0.3378 C   0  0  0  0  0  0  0  0  0  0  0  0
   -0.8605   -0.0239    0.2450 N   0  0  0  0  0  0  0  0  0  0  0  0
   -1.9528   -0.1491   -0.5292 C   0  0  0  0  0  0  0  0  0  0  0  0
   -3.2259   -0.0819    0.0757 N   0  0  0  0  0  0  0  0  0  0  0  0
   -3.2179    0.2340    1.5022 C   0  0  0  0  0  0  0  0  0  0  0  0
   -4.5943    0.3799    2.0596 C   0  0  0  0  0  0  0  0  0  0  0  0
   -5.3995   -0.4352    2.8282 C   0  0  0  0  0  0  0  0  0  0  0  0
   -6.6123    0.2692    3.0208 C   0  0  0  0  0  0  0  0  0  0  0  0
   -6.4723    1.4640    2.3547 C   0  0  0  0  0  0  0  0  0  0  0  0
   -5.2519    1.5402    1.7643 O   0  0  0  0  0  0  0  0  0  0  0  0
   -1.8604   -0.3829   -1.9100 C   0  0  0  0  0  0  0  0  0  0  0  0
   -2.9602   -0.5758   -2.7865 C   0  0  0  0  0  0  0  0  0  0  0  0
   -2.7598   -0.7919   -4.1479 C   0  0  0  0  0  0  0  0  0  0  0  0
   -1.4655   -0.8215   -4.6473 C   0  0  0  0  0  0  0  0  0  0  0  0
   -0.3844   -0.6420   -3.7799 C   0  0  0  0  0  0  0  0  0  0  0  0
   -0.5603   -0.4278   -2.4175 C   0  0  0  0  0  0  0  0  0  0  0  0
    0.5200   -0.2766   -1.6487 N   0  0  0  0  0  0  0  0  0  0  0  0
    3.6118    0.2423    1.5174 C   0  0  0  0  0  0  0  0  0  0  0  0
    5.0118    0.2480    1.4397 C   0  0  0  0  0  0  0  0  0  0  0  0
    7.6673    1.2167    1.5774 H   0  0  0  0  0  0  0  0  0  0  0  0
    8.8682    0.1907    0.7835 H   0  0  0  0  0  0  0  0  0  0  0  0
    7.6885   -0.5680    1.8595 H   0  0  0  0  0  0  0  0  0  0  0  0
    5.3358   -0.2757   -1.8888 H   0  0  0  0  0  0  0  0  0  0  0  0
    2.9002   -0.2858   -1.7570 H   0  0  0  0  0  0  0  0  0  0  0  0
    1.0632    0.1799    1.4710 H   0  0  0  0  0  0  0  0  0  0  0  0
   -3.7974    0.5968   -0.4216 H   0  0  0  0  0  0  0  0  0  0  0  0
   -2.7016   -0.5593    2.0579 H   0  0  0  0  0  0  0  0  0  0  0  0
   -2.6808    1.1744    1.6837 H   0  0  0  0  0  0  0  0  0  0  0  0
   -5.1410   -1.4181    3.1972 H   0  0  0  0  0  0  0  0  0  0  0  0
   -7.4833   -0.0546    3.5729 H   0  0  0  0  0  0  0  0  0  0  0  0
   -7.1154    2.3211    2.2107 H   0  0  0  0  0  0  0  0  0  0  0  0
   -3.9771   -0.5717   -2.4005 H   0  0  0  0  0  0  0  0  0  0  0  0
   -3.6085   -0.9408   -4.8104 H   0  0  0  0  0  0  0  0  0  0  0  0
   -1.2892   -0.9901   -5.7065 H   0  0  0  0  0  0  0  0  0  0  0  0
    0.6274   -0.6746   -4.1789 H   0  0  0  0  0  0  0  0  0  0  0  0
    3.1499    0.3927    2.4905 H   0  0  0  0  0  0  0  0  0  0  0  0
    5.5721    0.4015    2.3554 H   0  0  0  0  0  0  0  0  0  0  0  0
  1  2  1  0
  2  3  1  0
  3  4  2  0
  4  5  1  0
  5  6  2  0
  6  7  1  0
  7  8  1  0
  8  9  2  0
  9 10  1  0
 10 11  1  0
 11 12  1  0
 12 13  1  0
 13 14  2  0
 14 15  1  0
 15 16  2  0
 16 17  1  0
 10 18  2  0
 18 19  1  0
 19 20  2  0
 20 21  1  0
 21 22  2  0
 22 23  1  0
 23 24  2  0
  6 25  1  0
 25 26  2  0
 26  3  1  0
 24  8  1  0
 17 13  1  0
 23 18  1  0
  1 27  1  0
  1 28  1  0
  1 29  1  0
  4 30  1  0
  5 31  1  0
  7 32  1  0
 11 33  1  0
 12 34  1  0
 12 35  1  0
 14 36  1  0
 15 37  1  0
 16 38  1  0
 19 39  1  0
 20 40  1  0
 21 41  1  0
 22 42  1  0
 25 43  1  0
 26 44  1  0
M  END
>  <ScrubInfo>  (1) 
{"isomerGroup": 0, "isomerId": 0, "confId": 0, "nr_conformers:": 1, "nr_isomers:": 6}

$$$$
_i1
     RDKit          3D

 44 47  0  0  0  0  0  0  0  0999 V2000
   -0.8438    0.5594   -0.2262 N   0  0  0  0  0  0  0  0  0  0  0  0
   -1.7271   -0.2934    0.3907 C   0  0  0  0  0  0  0  0  0  0  0  0
   -3.0958   -0.0917    0.2550 N   0  0  0  0  0  0  0  0  0  0  0  0
   -3.7331    1.1891   -0.0262 C   0  0  0  0  0  0  0  0  0  0  0  0
   -5.2215    1.1220    0.0008 C   0  0  0  0  0  0  0  0  0  0  0  0
   -6.2027    1.3606   -0.9391 C   0  0  0  0  0  0  0  0  0  0  0  0
   -7.4397    1.1136   -0.2960 C   0  0  0  0  0  0  0  0  0  0  0  0
   -7.1355    0.7375    0.9910 C   0  0  0  0  0  0  0  0  0  0  0  0
   -5.7911    0.7360    1.1813 O   0  0  0  0  0  0  0  0  0  0  0  0
   -1.2037   -1.3209    1.1085 C   0  0  0  0  0  0  0  0  0  0  0  0
   -1.9381   -2.3581    1.8138 C   0  0  0  0  0  0  0  0  0  0  0  0
   -1.2994   -3.3025    2.5191 C   0  0  0  0  0  0  0  0  0  0  0  0
    0.1393   -3.3302    2.6096 C   0  0  0  0  0  0  0  0  0  0  0  0
    0.9106   -2.4351    1.9795 C   0  0  0  0  0  0  0  0  0  0  0  0
    0.3096   -1.3505    1.1518 C   0  0  0  0  0  0  0  0  0  0  0  0
    1.1119   -0.5311    0.5460 N   0  0  0  0  0  0  0  0  0  0  0  0
    0.5137    0.4436   -0.2065 C   0  0  0  0  0  0  0  0  0  0  0  0
    1.2196    1.2733   -0.9209 N   0  0  0  0  0  0  0  0  0  0  0  0
    2.6170    1.1635   -0.9088 C   0  0  0  0  0  0  0  0  0  0  0  0
    3.2723    0.3733   -1.8558 C   0  0  0  0  0  0  0  0  0  0  0  0
    4.6696    0.2878   -1.8733 C   0  0  0  0  0  0  0  0  0  0  0  0
    5.4253    1.0057   -0.9456 C   0  0  0  0  0  0  0  0  0  0  0  0
    6.7900    1.0128   -0.8521 O   0  0  0  0  0  0  0  0  0  0  0  0
    7.4998    0.2029   -1.7802 C   0  0  0  0  0  0  0  0  0  0  0  0
    4.7712    1.8092   -0.0083 C   0  0  0  0  0  0  0  0  0  0  0  0
    3.3763    1.8925    0.0069 C   0  0  0  0  0  0  0  0  0  0  0  0
   -1.2074    1.2274   -0.8836 H   0  0  0  0  0  0  0  0  0  0  0  0
   -3.6544   -0.6253    0.9156 H   0  0  0  0  0  0  0  0  0  0  0  0
   -3.4061    1.9292    0.7143 H   0  0  0  0  0  0  0  0  0  0  0  0
   -3.4136    1.5479   -1.0115 H   0  0  0  0  0  0  0  0  0  0  0  0
   -6.0438    1.6711   -1.9626 H   0  0  0  0  0  0  0  0  0  0  0  0
   -8.4315    1.1967   -0.7180 H   0  0  0  0  0  0  0  0  0  0  0  0
   -7.7296    0.4526    1.8483 H   0  0  0  0  0  0  0  0  0  0  0  0
   -3.0199   -2.3817    1.7611 H   0  0  0  0  0  0  0  0  0  0  0  0
   -1.8552   -4.0780    3.0385 H   0  0  0  0  0  0  0  0  0  0  0  0
    0.5918   -4.1152    3.2083 H   0  0  0  0  0  0  0  0  0  0  0  0
    1.9923   -2.4586    2.0404 H   0  0  0  0  0  0  0  0  0  0  0  0
    2.6862   -0.1833   -2.5813 H   0  0  0  0  0  0  0  0  0  0  0  0
    5.1298   -0.3451   -2.6235 H   0  0  0  0  0  0  0  0  0  0  0  0
    8.5683    0.3133   -1.5714 H   0  0  0  0  0  0  0  0  0  0  0  0
    7.3259    0.5360   -2.8088 H   0  0  0  0  0  0  0  0  0  0  0  0
    7.2446   -0.8550   -1.6578 H   0  0  0  0  0  0  0  0  0  0  0  0
    5.3504    2.3760    0.7156 H   0  0  0  0  0  0  0  0  0  0  0  0
    2.8776    2.5226    0.7369 H   0  0  0  0  0  0  0  0  0  0  0  0
  1  2  1  0
  2  3  1  0
  3  4  1  0
  4  5  1  0
  5  6  2  0
  6  7  1  0
  7  8  2  0
  8  9  1  0
  2 10  2  0
 10 11  1  0
 11 12  2  0
 12 13  1  0
 13 14  2  0
 14 15  1  0
 15 16  2  0
 16 17  1  0
 17 18  2  3
 18 19  1  0
 19 20  2  0
 20 21  1  0
 21 22  2  0
 22 23  1  0
 23 24  1  0
 22 25  1  0
 25 26  2  0
 17  1  1  0
 26 19  1  0
  9  5  1  0
 15 10  1  0
  1 27  1  0
  3 28  1  0
  4 29  1  0
  4 30  1  0
  6 31  1  0
  7 32  1  0
  8 33  1  0
 11 34  1  0
 12 35  1  0
 13 36  1  0
 14 37  1  0
 20 38  1  0
 21 39  1  0
 24 40  1  0
 24 41  1  0
 24 42  1  0
 25 43  1  0
 26 44  1  0
M  END
>  <ScrubInfo>  (2) 
{"isomerGroup": 0, "isomerId": 1, "confId": 0, "nr_conformers:": 1, "nr_isomers:": 6}

$$$$
_i2
     RDKit          3D

 44 47  0  0  0  0  0  0  0  0999 V2000
    0.8105    0.3830   -0.0921 N   0  0  0  0  0  0  0  0  0  0  0  0
   -0.3922   -0.2707    0.0163 C   0  0  0  0  0  0  0  0  0  0  0  0
   -1.4427    0.5192   -0.3872 N   0  0  0  0  0  0  0  0  0  0  0  0
   -2.8219    0.2408   -0.2772 C   0  0  0  0  0  0  0  0  0  0  0  0
   -3.7235    0.9651   -1.0746 C   0  0  0  0  0  0  0  0  0  0  0  0
   -5.1085    0.7654   -0.9834 C   0  0  0  0  0  0  0  0  0  0  0  0
   -5.6231   -0.1558   -0.0758 C   0  0  0  0  0  0  0  0  0  0  0  0
   -6.9440   -0.4476    0.1177 O   0  0  0  0  0  0  0  0  0  0  0  0
   -7.8808    0.2304   -0.7093 C   0  0  0  0  0  0  0  0  0  0  0  0
   -4.7404   -0.8627    0.7391 C   0  0  0  0  0  0  0  0  0  0  0  0
   -3.3578   -0.6611    0.6454 C   0  0  0  0  0  0  0  0  0  0  0  0
   -0.4744   -1.4962    0.4436 N   0  0  0  0  0  0  0  0  0  0  0  0
    0.7262   -2.1544    0.7902 C   0  0  0  0  0  0  0  0  0  0  0  0
    0.6473   -3.4778    1.2317 C   0  0  0  0  0  0  0  0  0  0  0  0
    1.8009   -4.1831    1.5874 C   0  0  0  0  0  0  0  0  0  0  0  0
    3.0514   -3.5699    1.5052 C   0  0  0  0  0  0  0  0  0  0  0  0
    3.1522   -2.2498    1.0669 C   0  0  0  0  0  0  0  0  0  0  0  0
    1.9934   -1.5503    0.7115 C   0  0  0  0  0  0  0  0  0  0  0  0
    2.0402   -0.1350    0.2421 C   0  0  0  0  0  0  0  0  0  0  0  0
    3.1847    0.4591    0.2006 N   0  0  0  0  0  0  0  0  0  0  0  0
    3.2433    1.8426   -0.2650 C   0  0  0  0  0  0  0  0  0  0  0  0
    4.6496    2.3206   -0.3151 C   0  0  0  0  0  0  0  0  0  0  0  0
    5.8675    1.7708    0.0303 C   0  0  0  0  0  0  0  0  0  0  0  0
    6.8483    2.7478   -0.2614 C   0  0  0  0  0  0  0  0  0  0  0  0
    6.1694    3.8317   -0.7653 C   0  0  0  0  0  0  0  0  0  0  0  0
    4.8348    3.5838   -0.8020 O   0  0  0  0  0  0  0  0  0  0  0  0
    0.7623    1.3748   -0.2505 H   0  0  0  0  0  0  0  0  0  0  0  0
   -1.2362    1.1334   -1.1622 H   0  0  0  0  0  0  0  0  0  0  0  0
   -3.3590    1.6987   -1.7895 H   0  0  0  0  0  0  0  0  0  0  0  0
   -5.7521    1.3488   -1.6328 H   0  0  0  0  0  0  0  0  0  0  0  0
   -7.7165   -0.0030   -1.7665 H   0  0  0  0  0  0  0  0  0  0  0  0
   -7.8523    1.3108   -0.5335 H   0  0  0  0  0  0  0  0  0  0  0  0
   -8.8810   -0.1240   -0.4418 H   0  0  0  0  0  0  0  0  0  0  0  0
   -5.1269   -1.5777    1.4614 H   0  0  0  0  0  0  0  0  0  0  0  0
   -2.7155   -1.2216    1.3190 H   0  0  0  0  0  0  0  0  0  0  0  0
   -0.3248   -3.9601    1.2964 H   0  0  0  0  0  0  0  0  0  0  0  0
    1.7205   -5.2122    1.9287 H   0  0  0  0  0  0  0  0  0  0  0  0
    3.9470   -4.1200    1.7829 H   0  0  0  0  0  0  0  0  0  0  0  0
    4.1259   -1.7717    1.0039 H   0  0  0  0  0  0  0  0  0  0  0  0
    2.6797    2.4934    0.4142 H   0  0  0  0  0  0  0  0  0  0  0  0
    2.8120    1.9261   -1.2699 H   0  0  0  0  0  0  0  0  0  0  0  0
    6.0155    0.7821    0.4422 H   0  0  0  0  0  0  0  0  0  0  0  0
    7.9170    2.6717   -0.1217 H   0  0  0  0  0  0  0  0  0  0  0  0
    6.4736    4.8048   -1.1242 H   0  0  0  0  0  0  0  0  0  0  0  0
  1  2  1  0
  2  3  1  0
  3  4  1  0
  4  5  2  0
  5  6  1  0
  6  7  2  0
  7  8  1  0
  8  9  1  0
  7 10  1  0
 10 11  2  0
  2 12  2  0
 12 13  1  0
 13 14  2  0
 14 15  1  0
 15 16  2  0
 16 17  1  0
 17 18  2  0
 18 19  1  0
 19 20  2  3
 20 21  1  0
 21 22  1  0
 22 23  2  0
 23 24  1  0
 24 25  2  0
 25 26  1  0
 19  1  1  0
 26 22  1  0
 11  4  1  0
 18 13  1  0
  1 27  1  0
  3 28  1  0
  5 29  1  0
  6 30  1  0
  9 31  1  0
  9 32  1  0
  9 33  1  0
 10 34  1  0
 11 35  1  0
 14 36  1  0
 15 37  1  0
 16 38  1  0
 17 39  1  0
 21 40  1  0
 21 41  1  0
 23 42  1  0
 24 43  1  0
 25 44  1  0
M  END
>  <ScrubInfo>  (3) 
{"isomerGroup": 0, "isomerId": 2, "confId": 0, "nr_conformers:": 1, "nr_isomers:": 6}

$$$$
_i3
     RDKit          3D

 44 47  0  0  0  0  0  0  0  0999 V2000
   -0.8527    0.4040    0.9336 N   0  0  0  0  0  0  0  0  0  0  0  0
   -0.4653    0.0217   -0.3242 C   0  0  0  0  0  0  0  0  0  0  0  0
   -1.2659   -0.2589   -1.3083 N   0  0  0  0  0  0  0  0  0  0  0  0
   -2.6486   -0.1806   -1.1174 C   0  0  0  0  0  0  0  0  0  0  0  0
   -3.3232    1.0287   -1.2858 C   0  0  0  0  0  0  0  0  0  0  0  0
   -4.7036    1.0980   -1.0834 C   0  0  0  0  0  0  0  0  0  0  0  0
   -5.4283   -0.0424   -0.7268 C   0  0  0  0  0  0  0  0  0  0  0  0
   -6.7694    0.1629   -0.5567 O   0  0  0  0  0  0  0  0  0  0  0  0
   -7.5641   -0.9829   -0.2773 C   0  0  0  0  0  0  0  0  0  0  0  0
   -4.7583   -1.2570   -0.5767 C   0  0  0  0  0  0  0  0  0  0  0  0
   -3.3748   -1.3233   -0.7770 C   0  0  0  0  0  0  0  0  0  0  0  0
    0.8614   -0.0943   -0.6568 N   0  0  0  0  0  0  0  0  0  0  0  0
    1.7821    0.0715    0.2512 C   0  0  0  0  0  0  0  0  0  0  0  0
    3.1122   -0.0194   -0.1104 N   0  0  0  0  0  0  0  0  0  0  0  0
    3.5053   -0.0876   -1.5109 C   0  0  0  0  0  0  0  0  0  0  0  0
    4.9830   -0.1677   -1.6980 C   0  0  0  0  0  0  0  0  0  0  0  0
    5.8071   -1.0259   -2.3963 C   0  0  0  0  0  0  0  0  0  0  0  0
    7.1310   -0.5739   -2.1791 C   0  0  0  0  0  0  0  0  0  0  0  0
    7.0318    0.5276   -1.3622 C   0  0  0  0  0  0  0  0  0  0  0  0
    5.7324    0.7823   -1.0611 O   0  0  0  0  0  0  0  0  0  0  0  0
    1.4361    0.3611    1.6795 C   0  0  0  0  0  0  0  0  0  0  0  0
    2.3910    0.4559    2.6978 C   0  0  0  0  0  0  0  0  0  0  0  0
    1.9841    0.7466    4.0012 C   0  0  0  0  0  0  0  0  0  0  0  0
    0.6324    0.9388    4.2852 C   0  0  0  0  0  0  0  0  0  0  0  0
   -0.3198    0.8266    3.2699 C   0  0  0  0  0  0  0  0  0  0  0  0
    0.0753    0.5181    1.9652 C   0  0  0  0  0  0  0  0  0  0  0  0
   -1.8342    0.3836    1.1560 H   0  0  0  0  0  0  0  0  0  0  0  0
   -2.7705    1.9173   -1.5789 H   0  0  0  0  0  0  0  0  0  0  0  0
   -5.2191    2.0461   -1.2153 H   0  0  0  0  0  0  0  0  0  0  0  0
   -7.4996   -1.7169   -1.0875 H   0  0  0  0  0  0  0  0  0  0  0  0
   -8.6063   -0.6574   -0.2053 H   0  0  0  0  0  0  0  0  0  0  0  0
   -7.2876   -1.4287    0.6839 H   0  0  0  0  0  0  0  0  0  0  0  0
   -5.2779   -2.1713   -0.3112 H   0  0  0  0  0  0  0  0  0  0  0  0
   -2.8553   -2.2726   -0.6724 H   0  0  0  0  0  0  0  0  0  0  0  0
    3.7728    0.5303    0.4266 H   0  0  0  0  0  0  0  0  0  0  0  0
    3.1421    0.8035   -2.0371 H   0  0  0  0  0  0  0  0  0  0  0  0
    3.0406   -0.9629   -1.9805 H   0  0  0  0  0  0  0  0  0  0  0  0
    5.4878   -1.8732   -2.9876 H   0  0  0  0  0  0  0  0  0  0  0  0
    8.0454   -0.9983   -2.5691 H   0  0  0  0  0  0  0  0  0  0  0  0
    7.7537    1.2054   -0.9284 H   0  0  0  0  0  0  0  0  0  0  0  0
    3.4458    0.2951    2.5025 H   0  0  0  0  0  0  0  0  0  0  0  0
    2.7222    0.8225    4.7964 H   0  0  0  0  0  0  0  0  0  0  0  0
    0.3187    1.1712    5.3002 H   0  0  0  0  0  0  0  0  0  0  0  0
   -1.3697    0.9761    3.5081 H   0  0  0  0  0  0  0  0  0  0  0  0
  1  2  1  0
  2  3  2  3
  3  4  1  0
  4  5  2  0
  5  6  1  0
  6  7  2  0
  7  8  1  0
  8  9  1  0
  7 10  1  0
 10 11  2  0
  2 12  1  0
 12 13  2  0
 13 14  1  0
 14 15  1  0
 15 16  1  0
 16 17  2  0
 17 18  1  0
 18 19  2  0
 19 20  1  0
 13 21  1  0
 21 22  2  0
 22 23  1  0
 23 24  2  0
 24 25  1  0
 25 26  2  0
 26  1  1  0
 11  4  1  0
 20 16  1  0
 26 21  1  0
  1 27  1  0
  5 28  1  0
  6 29  1  0
  9 30  1  0
  9 31  1  0
  9 32  1  0
 10 33  1  0
 11 34  1  0
 14 35  1  0
 15 36  1  0
 15 37  1  0
 17 38  1  0
 18 39  1  0
 19 40  1  0
 22 41  1  0
 23 42  1  0
 24 43  1  0
 25 44  1  0
M  END
>  <ScrubInfo>  (4) 
{"isomerGroup": 0, "isomerId": 3, "confId": 0, "nr_conformers:": 1, "nr_isomers:": 6}

$$$$
_i4
     RDKit          3D

 44 47  0  0  0  0  0  0  0  0999 V2000
    0.4730    1.1152   -1.1451 N   0  0  0  0  0  0  0  0  0  0  0  0
    0.2861    0.6019    0.1068 C   0  0  0  0  0  0  0  0  0  0  0  0
    1.4165    0.4611    0.8647 N   0  0  0  0  0  0  0  0  0  0  0  0
    2.6680   -0.0525    0.4627 C   0  0  0  0  0  0  0  0  0  0  0  0
    3.7687    0.1457    1.3086 C   0  0  0  0  0  0  0  0  0  0  0  0
    5.0462   -0.3130    0.9618 C   0  0  0  0  0  0  0  0  0  0  0  0
    5.2441   -0.9821   -0.2433 C   0  0  0  0  0  0  0  0  0  0  0  0
    6.4304   -1.4793   -0.7049 O   0  0  0  0  0  0  0  0  0  0  0  0
    7.5651   -1.3236    0.1381 C   0  0  0  0  0  0  0  0  0  0  0  0
    4.1548   -1.1864   -1.0906 C   0  0  0  0  0  0  0  0  0  0  0  0
    2.8797   -0.7265   -0.7433 C   0  0  0  0  0  0  0  0  0  0  0  0
   -0.8641    0.3087    0.6371 N   0  0  0  0  0  0  0  0  0  0  0  0
   -2.0047    0.4928   -0.1153 C   0  0  0  0  0  0  0  0  0  0  0  0
   -3.1582    0.1279    0.3347 N   0  0  0  0  0  0  0  0  0  0  0  0
   -3.1720   -0.4869    1.6651 C   0  0  0  0  0  0  0  0  0  0  0  0
   -4.5643   -0.8615    2.0421 C   0  0  0  0  0  0  0  0  0  0  0  0
   -5.7725   -0.8701    1.3739 C   0  0  0  0  0  0  0  0  0  0  0  0
   -6.7388   -1.3449    2.2917 C   0  0  0  0  0  0  0  0  0  0  0  0
   -6.0619   -1.5982    3.4610 C   0  0  0  0  0  0  0  0  0  0  0  0
   -4.7427   -1.3099    3.3209 O   0  0  0  0  0  0  0  0  0  0  0  0
   -1.9128    1.1308   -1.4567 C   0  0  0  0  0  0  0  0  0  0  0  0
   -3.0476    1.4014   -2.2280 C   0  0  0  0  0  0  0  0  0  0  0  0
   -2.9013    1.9968   -3.4806 C   0  0  0  0  0  0  0  0  0  0  0  0
   -1.6280    2.3111   -3.9584 C   0  0  0  0  0  0  0  0  0  0  0  0
   -0.4969    2.0367   -3.1840 C   0  0  0  0  0  0  0  0  0  0  0  0
   -0.6353    1.4623   -1.9182 C   0  0  0  0  0  0  0  0  0  0  0  0
    1.3511    1.5773   -1.3343 H   0  0  0  0  0  0  0  0  0  0  0  0
    1.1892    0.1665    1.8105 H   0  0  0  0  0  0  0  0  0  0  0  0
    3.6414    0.6763    2.2501 H   0  0  0  0  0  0  0  0  0  0  0  0
    5.8600   -0.1268    1.6545 H   0  0  0  0  0  0  0  0  0  0  0  0
    7.4228   -1.8420    1.0921 H   0  0  0  0  0  0  0  0  0  0  0  0
    8.4213   -1.7825   -0.3656 H   0  0  0  0  0  0  0  0  0  0  0  0
    7.7983   -0.2651    0.2936 H   0  0  0  0  0  0  0  0  0  0  0  0
    4.2961   -1.7175   -2.0292 H   0  0  0  0  0  0  0  0  0  0  0  0
    2.0566   -0.9372   -1.4213 H   0  0  0  0  0  0  0  0  0  0  0  0
   -2.7883    0.2141    2.4166 H   0  0  0  0  0  0  0  0  0  0  0  0
   -2.5590   -1.3965    1.6776 H   0  0  0  0  0  0  0  0  0  0  0  0
   -5.9219   -0.5662    0.3474 H   0  0  0  0  0  0  0  0  0  0  0  0
   -7.7964   -1.4855    2.1224 H   0  0  0  0  0  0  0  0  0  0  0  0
   -6.3574   -1.9671    4.4328 H   0  0  0  0  0  0  0  0  0  0  0  0
   -4.0376    1.1484   -1.8568 H   0  0  0  0  0  0  0  0  0  0  0  0
   -3.7792    2.2090   -4.0861 H   0  0  0  0  0  0  0  0  0  0  0  0
   -1.5158    2.7649   -4.9404 H   0  0  0  0  0  0  0  0  0  0  0  0
    0.4874    2.2724   -3.5798 H   0  0  0  0  0  0  0  0  0  0  0  0
  1  2  1  0
  2  3  1  0
  3  4  1  0
  4  5  2  0
  5  6  1  0
  6  7  2  0
  7  8  1  0
  8  9  1  0
  7 10  1  0
 10 11  2  0
  2 12  2  0
 12 13  1  0
 13 14  2  3
 14 15  1  0
 15 16  1  0
 16 17  2  0
 17 18  1  0
 18 19  2  0
 19 20  1  0
 13 21  1  0
 21 22  2  0
 22 23  1  0
 23 24  2  0
 24 25  1  0
 25 26  2  0
 26  1  1  0
 11  4  1  0
 20 16  1  0
 26 21  1  0
  1 27  1  0
  3 28  1  0
  5 29  1  0
  6 30  1  0
  9 31  1  0
  9 32  1  0
  9 33  1  0
 10 34  1  0
 11 35  1  0
 15 36  1  0
 15 37  1  0
 17 38  1  0
 18 39  1  0
 19 40  1  0
 22 41  1  0
 23 42  1  0
 24 43  1  0
 25 44  1  0
M  END
>  <ScrubInfo>  (5) 
{"isomerGroup": 0, "isomerId": 4, "confId": 0, "nr_conformers:": 1, "nr_isomers:": 6}

$$$$
_i5
     RDKit          3D

 44 47  0  0  0  0  0  0  0  0999 V2000
   -0.8160    0.2013    0.8981 N   0  0  0  0  0  0  0  0  0  0  0  0
   -0.4433    0.0748   -0.4172 C   0  0  0  0  0  0  0  0  0  0  0  0
   -1.2252   -0.0189   -1.4542 N   0  0  0  0  0  0  0  0  0  0  0  0
   -2.6110    0.0082   -1.2587 C   0  0  0  0  0  0  0  0  0  0  0  0
   -3.2999    1.2207   -1.2337 C   0  0  0  0  0  0  0  0  0  0  0  0
   -4.6818    1.2399   -1.0306 C   0  0  0  0  0  0  0  0  0  0  0  0
   -5.3932    0.0487   -0.8651 C   0  0  0  0  0  0  0  0  0  0  0  0
   -6.7372    0.2083   -0.6719 O   0  0  0  0  0  0  0  0  0  0  0  0
   -7.5174   -0.9763   -0.5691 C   0  0  0  0  0  0  0  0  0  0  0  0
   -4.7084   -1.1661   -0.9072 C   0  0  0  0  0  0  0  0  0  0  0  0
   -3.3233   -1.1830   -1.1082 C   0  0  0  0  0  0  0  0  0  0  0  0
    0.9105    0.0472   -0.6159 N   0  0  0  0  0  0  0  0  0  0  0  0
    1.9311    0.1292    0.3028 C   0  0  0  0  0  0  0  0  0  0  0  0
    3.2011    0.0985    0.0742 N   0  0  0  0  0  0  0  0  0  0  0  0
    3.6588   -0.0387   -1.3077 C   0  0  0  0  0  0  0  0  0  0  0  0
    5.1447   -0.0568   -1.3653 C   0  0  0  0  0  0  0  0  0  0  0  0
    6.1471    0.0462   -0.4219 C   0  0  0  0  0  0  0  0  0  0  0  0
    7.3724   -0.0443   -1.1234 C   0  0  0  0  0  0  0  0  0  0  0  0
    7.0428   -0.1963   -2.4492 C   0  0  0  0  0  0  0  0  0  0  0  0
    5.6943   -0.2051   -2.6074 O   0  0  0  0  0  0  0  0  0  0  0  0
    1.4825    0.2700    1.7243 C   0  0  0  0  0  0  0  0  0  0  0  0
    2.3950    0.3674    2.7799 C   0  0  0  0  0  0  0  0  0  0  0  0
    1.9255    0.4974    4.0863 C   0  0  0  0  0  0  0  0  0  0  0  0
    0.5528    0.5295    4.3341 C   0  0  0  0  0  0  0  0  0  0  0  0
   -0.3577    0.4318    3.2773 C   0  0  0  0  0  0  0  0  0  0  0  0
    0.0963    0.3015    1.9602 C   0  0  0  0  0  0  0  0  0  0  0  0
   -1.8011    0.2355    1.1169 H   0  0  0  0  0  0  0  0  0  0  0  0
   -2.7592    2.1526   -1.3746 H   0  0  0  0  0  0  0  0  0  0  0  0
   -5.2093    2.1905   -1.0105 H   0  0  0  0  0  0  0  0  0  0  0  0
   -7.4460   -1.5777   -1.4815 H   0  0  0  0  0  0  0  0  0  0  0  0
   -8.5633   -0.6782   -0.4479 H   0  0  0  0  0  0  0  0  0  0  0  0
   -7.2331   -1.5595    0.3129 H   0  0  0  0  0  0  0  0  0  0  0  0
   -5.2177   -2.1169   -0.7925 H   0  0  0  0  0  0  0  0  0  0  0  0
   -2.7941   -2.1316   -1.1501 H   0  0  0  0  0  0  0  0  0  0  0  0
    1.1519   -0.0459   -1.5908 H   0  0  0  0  0  0  0  0  0  0  0  0
    3.2983    0.8016   -1.9130 H   0  0  0  0  0  0  0  0  0  0  0  0
    3.2830   -0.9731   -1.7415 H   0  0  0  0  0  0  0  0  0  0  0  0
    5.9968    0.1712    0.6414 H   0  0  0  0  0  0  0  0  0  0  0  0
    8.3715   -0.0037   -0.7141 H   0  0  0  0  0  0  0  0  0  0  0  0
    7.6195   -0.3061   -3.3567 H   0  0  0  0  0  0  0  0  0  0  0  0
    3.4644    0.3424    2.5874 H   0  0  0  0  0  0  0  0  0  0  0  0
    2.6305    0.5737    4.9105 H   0  0  0  0  0  0  0  0  0  0  0  0
    0.1898    0.6310    5.3543 H   0  0  0  0  0  0  0  0  0  0  0  0
   -1.4223    0.4591    3.4949 H   0  0  0  0  0  0  0  0  0  0  0  0
  1  2  1  0
  2  3  2  3
  3  4  1  0
  4  5  2  0
  5  6  1  0
  6  7  2  0
  7  8  1  0
  8  9  1  0
  7 10  1  0
 10 11  2  0
  2 12  1  0
 12 13  1  0
 13 14  2  3
 14 15  1  0
 15 16  1  0
 16 17  2  0
 17 18  1  0
 18 19  2  0
 19 20  1  0
 13 21  1  0
 21 22  2  0
 22 23  1  0
 23 24  2  0
 24 25  1  0
 25 26  2  0
 26  1  1  0
 11  4  1  0
 20 16  1  0
 26 21  1  0
  1 27  1  0
  5 28  1  0
  6 29  1  0
  9 30  1  0
  9 31  1  0
  9 32  1  0
 10 33  1  0
 11 34  1  0
 12 35  1  0
 15 36  1  0
 15 37  1  0
 17 38  1  0
 18 39  1  0
 19 40  1  0
 22 41  1  0
 23 42  1  0
 24 43  1  0
 25 44  1  0
M  END
>  <ScrubInfo>  (6) 
{"isomerGroup": 0, "isomerId": 5, "confId": 0, "nr_conformers:": 1, "nr_isomers:": 6}

$$$$
