REMARK SMILES COc1ccc(Nc2nc(NCc3ccco3)c3ccccc3n2)cc1
REMARK SMILES IDX 8 1 9 2 10 3 18 4 19 5 20 6 21 7 22 8 23 9 24 10 7 11 6 13
REMARK SMILES IDX 3 14 4 15 26 16 5 17 25 18 2 19 1 20 11 21 12 23 13 24 14 25
REMARK SMILES IDX 17 26 15 27 16 28
REMARK H PARENT 7 12 11 22
ROOT
ATOM      1  C   UNL     1       0.345  -0.089  -0.338  1.00  0.00     0.229 A 
ATOM      2  N   UNL     1      -0.861  -0.024   0.245  1.00  0.00    -0.195 NA
ATOM      3  C   UNL     1      -1.953  -0.149  -0.529  1.00  0.00     0.139 A 
ATOM      4  C   UNL     1      -1.860  -0.383  -1.910  1.00  0.00     0.043 A 
ATOM      5  C   UNL     1      -2.960  -0.576  -2.787  1.00  0.00     0.014 A 
ATOM      6  C   UNL     1      -2.760  -0.792  -4.148  1.00  0.00     0.001 A 
ATOM      7  C   UNL     1      -1.466  -0.822  -4.647  1.00  0.00     0.002 A 
ATOM      8  C   UNL     1      -0.384  -0.642  -3.780  1.00  0.00     0.029 A 
ATOM      9  C   UNL     1      -0.560  -0.428  -2.417  1.00  0.00     0.078 A 
ATOM     10  N   UNL     1       0.520  -0.277  -1.649  1.00  0.00    -0.213 NA
ENDROOT
BRANCH   1  11
ATOM     11  N   UNL     1       1.420   0.061   0.535  1.00  0.00    -0.324 N 
ATOM     12  H   UNL     1       1.063   0.180   1.471  1.00  0.00     0.170 HD
BRANCH  11  13
ATOM     13  C   UNL     1       2.809   0.050   0.381  1.00  0.00     0.041 A 
ATOM     14  C   UNL     1       5.643   0.061   0.214  1.00  0.00     0.119 A 
ATOM     15  C   UNL     1       4.859  -0.129  -0.923  1.00  0.00     0.048 A 
ATOM     16  C   UNL     1       5.012   0.248   1.440  1.00  0.00     0.048 A 
ATOM     17  C   UNL     1       3.460  -0.134  -0.840  1.00  0.00     0.030 A 
ATOM     18  C   UNL     1       3.612   0.242   1.517  1.00  0.00     0.030 A 
BRANCH  14  19
ATOM     19  O   UNL     1       6.991   0.043  -0.007  1.00  0.00    -0.497 OA
ATOM     20  C   UNL     1       7.830   0.232   1.126  1.00  0.00     0.278 C 
ENDBRANCH  14  19
ENDBRANCH  11  13
ENDBRANCH   1  11
BRANCH   3  21
ATOM     21  N   UNL     1      -3.226  -0.082   0.076  1.00  0.00    -0.362 N 
ATOM     22  H   UNL     1      -3.797   0.597  -0.422  1.00  0.00     0.162 HD
BRANCH  21  23
ATOM     23  C   UNL     1      -3.218   0.234   1.502  1.00  0.00     0.190 C 
BRANCH  23  24
ATOM     24  C   UNL     1      -4.594   0.380   2.060  1.00  0.00     0.122 A 
ATOM     25  C   UNL     1      -5.399  -0.435   2.828  1.00  0.00     0.047 A 
ATOM     26  O   UNL     1      -5.252   1.540   1.764  1.00  0.00    -0.467 OA
ATOM     27  C   UNL     1      -6.612   0.269   3.021  1.00  0.00     0.042 A 
ATOM     28  C   UNL     1      -6.472   1.464   2.355  1.00  0.00     0.195 A 
ENDBRANCH  23  24
ENDBRANCH  21  23
ENDBRANCH   3  21
TORSDOF 6
