_i0
     RDKit          3D

 46 48  0  0  0  0  0  0  0  0999 V2000
   -5.8579    1.6010    0.0013 C   0  0  0  0  0  0  0  0  0  0  0  0
   -5.1273    0.2716    0.1874 C   0  0  0  0  0  0  0  0  0  0  0  0
   -4.8411   -0.3773   -1.1672 C   0  0  0  0  0  0  0  0  0  0  0  0
   -3.8554    0.4119    1.0451 C   0  0  0  0  0  0  0  0  0  0  0  0
   -2.7932    1.3659    0.4869 C   0  0  0  0  0  0  0  0  0  0  0  0
   -1.6182    1.3747    1.3442 N   0  0  0  0  0  0  0  0  0  0  0  0
   -0.5949    0.5040    0.9903 C   0  0  0  0  0  0  0  0  0  0  0  0
    0.6425    0.9553    1.2731 N   0  0  0  0  0  0  0  0  0  0  0  0
    1.7272    0.1969    0.9784 C   0  0  0  0  0  0  0  0  0  0  0  0
    2.9857    0.7241    1.3221 N   0  0  0  0  0  0  0  0  0  0  0  0
    4.1440    0.6992    0.5066 C   0  0  0  0  0  0  0  0  0  0  0  0
    4.0932    0.7934   -0.8883 C   0  0  0  0  0  0  0  0  0  0  0  0
    5.2734    0.8594   -1.6363 C   0  0  0  0  0  0  0  0  0  0  0  0
    6.5139    0.8602   -0.9964 C   0  0  0  0  0  0  0  0  0  0  0  0
    6.5800    0.8007    0.3938 C   0  0  0  0  0  0  0  0  0  0  0  0
    5.4019    0.7283    1.1272 C   0  0  0  0  0  0  0  0  0  0  0  0
    5.4922    0.6618    2.4918 O   0  0  0  0  0  0  0  0  0  0  0  0
    1.5141   -1.0547    0.3990 C   0  0  0  0  0  0  0  0  0  0  0  0
    2.2665   -2.1641   -0.0380 C   0  0  0  0  0  0  0  0  0  0  0  0
    1.5040   -3.1421   -0.5424 N   0  0  0  0  0  0  0  0  0  0  0  0
    0.2482   -2.6555   -0.4073 N   0  0  0  0  0  0  0  0  0  0  0  0
   -0.8727   -3.4548   -0.8334 C   0  0  0  0  0  0  0  0  0  0  0  0
    0.2036   -1.4073    0.1501 C   0  0  0  0  0  0  0  0  0  0  0  0
   -0.8841   -0.6694    0.4123 N   0  0  0  0  0  0  0  0  0  0  0  0
   -6.8231    1.4420   -0.4916 H   0  0  0  0  0  0  0  0  0  0  0  0
   -6.0518    2.0777    0.9678 H   0  0  0  0  0  0  0  0  0  0  0  0
   -5.2831    2.2984   -0.6164 H   0  0  0  0  0  0  0  0  0  0  0  0
   -5.8039   -0.3998    0.7327 H   0  0  0  0  0  0  0  0  0  0  0  0
   -4.2426    0.2725   -1.8133 H   0  0  0  0  0  0  0  0  0  0  0  0
   -5.7772   -0.5935   -1.6935 H   0  0  0  0  0  0  0  0  0  0  0  0
   -4.3040   -1.3232   -1.0411 H   0  0  0  0  0  0  0  0  0  0  0  0
   -3.4254   -0.5870    1.1902 H   0  0  0  0  0  0  0  0  0  0  0  0
   -4.1431    0.7559    2.0478 H   0  0  0  0  0  0  0  0  0  0  0  0
   -3.2003    2.3834    0.4805 H   0  0  0  0  0  0  0  0  0  0  0  0
   -2.5328    1.1336   -0.5521 H   0  0  0  0  0  0  0  0  0  0  0  0
   -1.1806    2.2808    1.4707 H   0  0  0  0  0  0  0  0  0  0  0  0
    2.7998    1.6851    1.6152 H   0  0  0  0  0  0  0  0  0  0  0  0
    3.1410    0.8281   -1.4112 H   0  0  0  0  0  0  0  0  0  0  0  0
    5.2241    0.9216   -2.7209 H   0  0  0  0  0  0  0  0  0  0  0  0
    7.4288    0.9152   -1.5809 H   0  0  0  0  0  0  0  0  0  0  0  0
    7.5392    0.8087    0.9025 H   0  0  0  0  0  0  0  0  0  0  0  0
    4.5849    0.4787    2.8024 H   0  0  0  0  0  0  0  0  0  0  0  0
    3.3407   -2.2981   -0.0119 H   0  0  0  0  0  0  0  0  0  0  0  0
   -0.8786   -4.3778   -0.2482 H   0  0  0  0  0  0  0  0  0  0  0  0
   -0.7523   -3.6770   -1.8967 H   0  0  0  0  0  0  0  0  0  0  0  0
   -1.8051   -2.9085   -0.6734 H   0  0  0  0  0  0  0  0  0  0  0  0
  1  2  1  0
  2  3  1  0
  2  4  1  0
  4  5  1  0
  5  6  1  0
  6  7  1  0
  7  8  2  0
  8  9  1  0
  9 10  1  0
 10 11  1  0
 11 12  2  0
 12 13  1  0
 13 14  2  0
 14 15  1  0
 15 16  2  0
 16 17  1  0
  9 18  2  0
 18 19  1  0
 19 20  2  0
 20 21  1  0
 21 22  1  0
 21 23  1  0
 23 24  2  0
 24  7  1  0
 16 11  1  0
 23 18  1  0
  1 25  1  0
  1 26  1  0
  1 27  1  0
  2 28  1  0
  3 29  1  0
  3 30  1  0
  3 31  1  0
  4 32  1  0
  4 33  1  0
  5 34  1  0
  5 35  1  0
  6 36  1  0
 10 37  1  0
 12 38  1  0
 13 39  1  0
 14 40  1  0
 15 41  1  0
 17 42  1  0
 19 43  1  0
 22 44  1  0
 22 45  1  0
 22 46  1  0
M  END
>  <ScrubInfo>  (1) 
{"isomerGroup": 0, "isomerId": 0, "confId": 0, "nr_conformers:": 1, "nr_isomers:": 9}

$$$$
_i1
     RDKit          3D

 46 48  0  0  0  0  0  0  0  0999 V2000
    0.1480   -0.1540   -0.4569 N   0  0  0  0  0  0  0  0  0  0  0  0
   -1.1982   -0.1989   -0.7744 C   0  0  0  0  0  0  0  0  0  0  0  0
   -1.9105    0.9697   -1.0190 N   0  0  0  0  0  0  0  0  0  0  0  0
   -3.1820    1.2510   -0.4432 C   0  0  0  0  0  0  0  0  0  0  0  0
   -3.5326    0.8561    0.8532 C   0  0  0  0  0  0  0  0  0  0  0  0
   -4.7575    1.2479    1.4031 C   0  0  0  0  0  0  0  0  0  0  0  0
   -5.6292    2.0597    0.6753 C   0  0  0  0  0  0  0  0  0  0  0  0
   -5.2794    2.4873   -0.6036 C   0  0  0  0  0  0  0  0  0  0  0  0
   -4.0645    2.0861   -1.1453 C   0  0  0  0  0  0  0  0  0  0  0  0
   -3.7488    2.5086   -2.4083 O   0  0  0  0  0  0  0  0  0  0  0  0
   -1.7286   -1.4264   -0.8576 C   0  0  0  0  0  0  0  0  0  0  0  0
   -3.0302   -2.0400   -1.1510 C   0  0  0  0  0  0  0  0  0  0  0  0
   -3.0120   -3.3469   -1.0649 N   0  0  0  0  0  0  0  0  0  0  0  0
   -1.6833   -3.6806   -0.7614 N   0  0  0  0  0  0  0  0  0  0  0  0
   -1.3740   -5.0216   -0.3298 C   0  0  0  0  0  0  0  0  0  0  0  0
   -0.8557   -2.5855   -0.5801 C   0  0  0  0  0  0  0  0  0  0  0  0
    0.3857   -2.5242   -0.2422 N   0  0  0  0  0  0  0  0  0  0  0  0
    0.9233   -1.2590   -0.1725 C   0  0  0  0  0  0  0  0  0  0  0  0
    2.1617   -1.2511    0.1701 N   0  0  0  0  0  0  0  0  0  0  0  0
    2.8705    0.0175    0.2848 C   0  0  0  0  0  0  0  0  0  0  0  0
    4.3126   -0.2823    0.7016 C   0  0  0  0  0  0  0  0  0  0  0  0
    5.2203    0.9496    0.8740 C   0  0  0  0  0  0  0  0  0  0  0  0
    4.7350    1.8792    1.9864 C   0  0  0  0  0  0  0  0  0  0  0  0
    5.4015    1.7264   -0.4301 C   0  0  0  0  0  0  0  0  0  0  0  0
    0.5799    0.7509   -0.3886 H   0  0  0  0  0  0  0  0  0  0  0  0
   -1.3260    1.7917   -0.8657 H   0  0  0  0  0  0  0  0  0  0  0  0
   -2.8601    0.2522    1.4571 H   0  0  0  0  0  0  0  0  0  0  0  0
   -5.0276    0.9283    2.4072 H   0  0  0  0  0  0  0  0  0  0  0  0
   -6.5787    2.3650    1.1084 H   0  0  0  0  0  0  0  0  0  0  0  0
   -5.9483    3.1244   -1.1747 H   0  0  0  0  0  0  0  0  0  0  0  0
   -2.9716    1.9833   -2.6756 H   0  0  0  0  0  0  0  0  0  0  0  0
   -3.9082   -1.4296   -1.3968 H   0  0  0  0  0  0  0  0  0  0  0  0
   -0.3329   -5.2743   -0.5549 H   0  0  0  0  0  0  0  0  0  0  0  0
   -1.5311   -5.1197    0.7488 H   0  0  0  0  0  0  0  0  0  0  0  0
   -2.0117   -5.7506   -0.8402 H   0  0  0  0  0  0  0  0  0  0  0  0
    2.3885    0.6490    1.0387 H   0  0  0  0  0  0  0  0  0  0  0  0
    2.8618    0.5400   -0.6776 H   0  0  0  0  0  0  0  0  0  0  0  0
    4.3004   -0.8467    1.6436 H   0  0  0  0  0  0  0  0  0  0  0  0
    4.7650   -0.9533   -0.0409 H   0  0  0  0  0  0  0  0  0  0  0  0
    6.2091    0.5749    1.1704 H   0  0  0  0  0  0  0  0  0  0  0  0
    5.4730    2.6660    2.1772 H   0  0  0  0  0  0  0  0  0  0  0  0
    3.7913    2.3687    1.7257 H   0  0  0  0  0  0  0  0  0  0  0  0
    4.5885    1.3266    2.9202 H   0  0  0  0  0  0  0  0  0  0  0  0
    5.7348    1.0638   -1.2356 H   0  0  0  0  0  0  0  0  0  0  0  0
    6.1583    2.5089   -0.3079 H   0  0  0  0  0  0  0  0  0  0  0  0
    4.4734    2.2122   -0.7474 H   0  0  0  0  0  0  0  0  0  0  0  0
  1  2  1  0
  2  3  1  0
  3  4  1  0
  4  5  2  0
  5  6  1  0
  6  7  2  0
  7  8  1  0
  8  9  2  0
  9 10  1  0
  2 11  2  0
 11 12  1  0
 12 13  2  0
 13 14  1  0
 14 15  1  0
 14 16  1  0
 16 17  2  0
 17 18  1  0
 18 19  2  3
 19 20  1  0
 20 21  1  0
 21 22  1  0
 22 23  1  0
 22 24  1  0
 18  1  1  0
  9  4  1  0
 16 11  1  0
  1 25  1  0
  3 26  1  0
  5 27  1  0
  6 28  1  0
  7 29  1  0
  8 30  1  0
 10 31  1  0
 12 32  1  0
 15 33  1  0
 15 34  1  0
 15 35  1  0
 20 36  1  0
 20 37  1  0
 21 38  1  0
 21 39  1  0
 22 40  1  0
 23 41  1  0
 23 42  1  0
 23 43  1  0
 24 44  1  0
 24 45  1  0
 24 46  1  0
M  END
>  <ScrubInfo>  (2) 
{"isomerGroup": 0, "isomerId": 1, "confId": 0, "nr_conformers:": 1, "nr_isomers:": 9}

$$$$
_i2
     RDKit          3D

 46 48  0  0  0  0  0  0  0  0999 V2000
   -0.0639   -0.2720    1.3217 N   0  0  0  0  0  0  0  0  0  0  0  0
    0.6108    0.8895    1.5938 C   0  0  0  0  0  0  0  0  0  0  0  0
    1.8389    0.7652    2.1797 N   0  0  0  0  0  0  0  0  0  0  0  0
    2.8476   -0.2010    1.7686 C   0  0  0  0  0  0  0  0  0  0  0  0
    3.3872    0.1358    0.3763 C   0  0  0  0  0  0  0  0  0  0  0  0
    4.3972   -0.8975   -0.1552 C   0  0  0  0  0  0  0  0  0  0  0  0
    5.6647   -0.9681    0.6975 C   0  0  0  0  0  0  0  0  0  0  0  0
    4.7670   -0.5645   -1.6028 C   0  0  0  0  0  0  0  0  0  0  0  0
    0.1439    2.0856    1.3342 N   0  0  0  0  0  0  0  0  0  0  0  0
   -1.0826    2.0243    0.7409 C   0  0  0  0  0  0  0  0  0  0  0  0
   -1.8330    0.9027    0.4190 C   0  0  0  0  0  0  0  0  0  0  0  0
   -3.0083    1.4243   -0.1493 C   0  0  0  0  0  0  0  0  0  0  0  0
   -3.0126    2.7630   -0.2013 N   0  0  0  0  0  0  0  0  0  0  0  0
   -1.8233    3.1026    0.3462 N   0  0  0  0  0  0  0  0  0  0  0  0
   -1.4746    4.4954    0.4682 C   0  0  0  0  0  0  0  0  0  0  0  0
   -1.3003   -0.4091    0.7349 C   0  0  0  0  0  0  0  0  0  0  0  0
   -1.8367   -1.5774    0.5561 N   0  0  0  0  0  0  0  0  0  0  0  0
   -3.0683   -1.7323   -0.0912 C   0  0  0  0  0  0  0  0  0  0  0  0
   -4.2198   -1.9422    0.6731 C   0  0  0  0  0  0  0  0  0  0  0  0
   -5.4571   -2.1355    0.0546 C   0  0  0  0  0  0  0  0  0  0  0  0
   -5.5494   -2.1356   -1.3373 C   0  0  0  0  0  0  0  0  0  0  0  0
   -4.4062   -1.9483   -2.1155 C   0  0  0  0  0  0  0  0  0  0  0  0
   -3.1731   -1.7544   -1.4920 C   0  0  0  0  0  0  0  0  0  0  0  0
   -2.0460   -1.5627   -2.2476 O   0  0  0  0  0  0  0  0  0  0  0  0
    0.3231   -1.1359    1.6593 H   0  0  0  0  0  0  0  0  0  0  0  0
    2.2360    1.6929    2.3133 H   0  0  0  0  0  0  0  0  0  0  0  0
    2.4455   -1.2192    1.7932 H   0  0  0  0  0  0  0  0  0  0  0  0
    3.6566   -0.1643    2.5053 H   0  0  0  0  0  0  0  0  0  0  0  0
    2.5477    0.1994   -0.3283 H   0  0  0  0  0  0  0  0  0  0  0  0
    3.8463    1.1330    0.3944 H   0  0  0  0  0  0  0  0  0  0  0  0
    3.9236   -1.8874   -0.1493 H   0  0  0  0  0  0  0  0  0  0  0  0
    6.3910   -1.6597    0.2568 H   0  0  0  0  0  0  0  0  0  0  0  0
    5.4467   -1.3295    1.7069 H   0  0  0  0  0  0  0  0  0  0  0  0
    6.1420    0.0141    0.7814 H   0  0  0  0  0  0  0  0  0  0  0  0
    3.8760   -0.5520   -2.2394 H   0  0  0  0  0  0  0  0  0  0  0  0
    5.4561   -1.3117   -2.0106 H   0  0  0  0  0  0  0  0  0  0  0  0
    5.2491    0.4165   -1.6744 H   0  0  0  0  0  0  0  0  0  0  0  0
   -3.8752    0.9028   -0.5290 H   0  0  0  0  0  0  0  0  0  0  0  0
   -0.4402    4.5968    0.8036 H   0  0  0  0  0  0  0  0  0  0  0  0
   -1.5898    4.9681   -0.5107 H   0  0  0  0  0  0  0  0  0  0  0  0
   -2.1494    4.9543    1.1950 H   0  0  0  0  0  0  0  0  0  0  0  0
   -4.1482   -1.9544    1.7572 H   0  0  0  0  0  0  0  0  0  0  0  0
   -6.3464   -2.2906    0.6603 H   0  0  0  0  0  0  0  0  0  0  0  0
   -6.5140   -2.2873   -1.8158 H   0  0  0  0  0  0  0  0  0  0  0  0
   -4.4947   -1.9558   -3.1973 H   0  0  0  0  0  0  0  0  0  0  0  0
   -2.2841   -1.6178   -3.1860 H   0  0  0  0  0  0  0  0  0  0  0  0
  1  2  1  0
  2  3  1  0
  3  4  1  0
  4  5  1  0
  5  6  1  0
  6  7  1  0
  6  8  1  0
  2  9  2  0
  9 10  1  0
 10 11  2  0
 11 12  1  0
 12 13  2  0
 13 14  1  0
 14 15  1  0
 11 16  1  0
 16 17  2  3
 17 18  1  0
 18 19  2  0
 19 20  1  0
 20 21  2  0
 21 22  1  0
 22 23  2  0
 23 24  1  0
 16  1  1  0
 23 18  1  0
 14 10  1  0
  1 25  1  0
  3 26  1  0
  4 27  1  0
  4 28  1  0
  5 29  1  0
  5 30  1  0
  6 31  1  0
  7 32  1  0
  7 33  1  0
  7 34  1  0
  8 35  1  0
  8 36  1  0
  8 37  1  0
 12 38  1  0
 15 39  1  0
 15 40  1  0
 15 41  1  0
 19 42  1  0
 20 43  1  0
 21 44  1  0
 22 45  1  0
 24 46  1  0
M  END
>  <ScrubInfo>  (3) 
{"isomerGroup": 0, "isomerId": 2, "confId": 0, "nr_conformers:": 1, "nr_isomers:": 9}

$$$$
_i3
     RDKit          3D

 46 48  0  0  0  0  0  0  0  0999 V2000
    0.7510    3.0463   -0.3306 N   0  0  0  0  0  0  0  0  0  0  0  0
    1.0286    1.7304   -0.0351 C   0  0  0  0  0  0  0  0  0  0  0  0
    2.2726    1.3867    0.0378 N   0  0  0  0  0  0  0  0  0  0  0  0
    2.6125   -0.0030    0.3476 C   0  0  0  0  0  0  0  0  0  0  0  0
    2.7956   -0.7806   -0.9579 C   0  0  0  0  0  0  0  0  0  0  0  0
    3.2403   -2.2465   -0.8004 C   0  0  0  0  0  0  0  0  0  0  0  0
    2.1875   -3.0999   -0.0947 C   0  0  0  0  0  0  0  0  0  0  0  0
    4.5920   -2.3762   -0.0989 C   0  0  0  0  0  0  0  0  0  0  0  0
    0.0215    0.8019    0.1689 N   0  0  0  0  0  0  0  0  0  0  0  0
   -1.2279    1.1610    0.0713 C   0  0  0  0  0  0  0  0  0  0  0  0
   -2.3453    0.3874    0.2358 N   0  0  0  0  0  0  0  0  0  0  0  0
   -2.4695   -0.9697    0.5902 C   0  0  0  0  0  0  0  0  0  0  0  0
   -1.4046   -1.8070    0.9218 C   0  0  0  0  0  0  0  0  0  0  0  0
   -1.6251   -3.1473    1.2611 C   0  0  0  0  0  0  0  0  0  0  0  0
   -2.9177   -3.6694    1.2734 C   0  0  0  0  0  0  0  0  0  0  0  0
   -3.9985   -2.8541    0.9483 C   0  0  0  0  0  0  0  0  0  0  0  0
   -3.7657   -1.5213    0.6128 C   0  0  0  0  0  0  0  0  0  0  0  0
   -4.8134   -0.6911    0.2892 O   0  0  0  0  0  0  0  0  0  0  0  0
   -1.5550    2.5404   -0.2515 C   0  0  0  0  0  0  0  0  0  0  0  0
   -2.7083    3.3201   -0.4455 C   0  0  0  0  0  0  0  0  0  0  0  0
   -2.4220    4.5990   -0.7360 N   0  0  0  0  0  0  0  0  0  0  0  0
   -1.0665    4.6376   -0.7243 N   0  0  0  0  0  0  0  0  0  0  0  0
   -0.3958    5.8825   -0.9991 C   0  0  0  0  0  0  0  0  0  0  0  0
   -0.5286    3.4250   -0.4375 C   0  0  0  0  0  0  0  0  0  0  0  0
    1.5661    3.6286   -0.4652 H   0  0  0  0  0  0  0  0  0  0  0  0
    3.5545    0.0155    0.9058 H   0  0  0  0  0  0  0  0  0  0  0  0
    1.8833   -0.4799    1.0098 H   0  0  0  0  0  0  0  0  0  0  0  0
    3.5336   -0.2564   -1.5799 H   0  0  0  0  0  0  0  0  0  0  0  0
    1.8574   -0.7563   -1.5276 H   0  0  0  0  0  0  0  0  0  0  0  0
    3.3596   -2.6511   -1.8144 H   0  0  0  0  0  0  0  0  0  0  0  0
    1.2209   -3.0206   -0.6024 H   0  0  0  0  0  0  0  0  0  0  0  0
    2.4803   -4.1554   -0.1022 H   0  0  0  0  0  0  0  0  0  0  0  0
    2.0536   -2.8017    0.9498 H   0  0  0  0  0  0  0  0  0  0  0  0
    4.5339   -2.0862    0.9549 H   0  0  0  0  0  0  0  0  0  0  0  0
    4.9448   -3.4126   -0.1361 H   0  0  0  0  0  0  0  0  0  0  0  0
    5.3464   -1.7501   -0.5867 H   0  0  0  0  0  0  0  0  0  0  0  0
   -3.2618    0.7873    0.0638 H   0  0  0  0  0  0  0  0  0  0  0  0
   -0.3845   -1.4386    0.9287 H   0  0  0  0  0  0  0  0  0  0  0  0
   -0.7793   -3.7815    1.5163 H   0  0  0  0  0  0  0  0  0  0  0  0
   -3.0786   -4.7115    1.5379 H   0  0  0  0  0  0  0  0  0  0  0  0
   -5.0009   -3.2690    0.9620 H   0  0  0  0  0  0  0  0  0  0  0  0
   -5.6341   -1.2106    0.3400 H   0  0  0  0  0  0  0  0  0  0  0  0
   -3.7485    3.0276   -0.3913 H   0  0  0  0  0  0  0  0  0  0  0  0
    0.6859    5.7433   -0.9461 H   0  0  0  0  0  0  0  0  0  0  0  0
   -0.7117    6.6159   -0.2530 H   0  0  0  0  0  0  0  0  0  0  0  0
   -0.6782    6.2115   -2.0023 H   0  0  0  0  0  0  0  0  0  0  0  0
  1  2  1  0
  2  3  2  3
  3  4  1  0
  4  5  1  0
  5  6  1  0
  6  7  1  0
  6  8  1  0
  2  9  1  0
  9 10  2  0
 10 11  1  0
 11 12  1  0
 12 13  2  0
 13 14  1  0
 14 15  2  0
 15 16  1  0
 16 17  2  0
 17 18  1  0
 10 19  1  0
 19 20  1  0
 20 21  2  0
 21 22  1  0
 22 23  1  0
 22 24  1  0
 24  1  1  0
 17 12  1  0
 24 19  2  0
  1 25  1  0
  4 26  1  0
  4 27  1  0
  5 28  1  0
  5 29  1  0
  6 30  1  0
  7 31  1  0
  7 32  1  0
  7 33  1  0
  8 34  1  0
  8 35  1  0
  8 36  1  0
 11 37  1  0
 13 38  1  0
 14 39  1  0
 15 40  1  0
 16 41  1  0
 18 42  1  0
 20 43  1  0
 23 44  1  0
 23 45  1  0
 23 46  1  0
M  END
>  <ScrubInfo>  (4) 
{"isomerGroup": 0, "isomerId": 3, "confId": 0, "nr_conformers:": 1, "nr_isomers:": 9}

$$$$
_i4
     RDKit          3D

 46 48  0  0  0  0  0  0  0  0999 V2000
   -2.7641    2.9432    0.4612 N   0  0  0  0  0  0  0  0  0  0  0  0
   -2.9965    1.5910    0.2342 C   0  0  0  0  0  0  0  0  0  0  0  0
   -1.8756    0.8538    0.2085 C   0  0  0  0  0  0  0  0  0  0  0  0
   -1.4683   -0.5357    0.0472 C   0  0  0  0  0  0  0  0  0  0  0  0
   -2.1535   -1.5895   -0.2543 N   0  0  0  0  0  0  0  0  0  0  0  0
   -3.5260   -1.4912   -0.5159 C   0  0  0  0  0  0  0  0  0  0  0  0
   -4.0024   -1.1533   -1.7838 C   0  0  0  0  0  0  0  0  0  0  0  0
   -5.3782   -1.0659   -2.0149 C   0  0  0  0  0  0  0  0  0  0  0  0
   -6.2823   -1.3304   -0.9822 C   0  0  0  0  0  0  0  0  0  0  0  0
   -5.8160   -1.6968    0.2804 C   0  0  0  0  0  0  0  0  0  0  0  0
   -4.4472   -1.7864    0.4964 C   0  0  0  0  0  0  0  0  0  0  0  0
   -3.9957   -2.1770    1.7282 O   0  0  0  0  0  0  0  0  0  0  0  0
   -0.1342   -0.7501    0.2620 N   0  0  0  0  0  0  0  0  0  0  0  0
    0.7153    0.2040    0.4893 C   0  0  0  0  0  0  0  0  0  0  0  0
    2.0371   -0.0698    0.6962 N   0  0  0  0  0  0  0  0  0  0  0  0
    2.6420   -1.3138    0.2673 C   0  0  0  0  0  0  0  0  0  0  0  0
    4.0863   -1.4248    0.7640 C   0  0  0  0  0  0  0  0  0  0  0  0
    5.0759   -0.3957    0.1802 C   0  0  0  0  0  0  0  0  0  0  0  0
    6.4635   -0.6133    0.7910 C   0  0  0  0  0  0  0  0  0  0  0  0
    5.1668   -0.4679   -1.3444 C   0  0  0  0  0  0  0  0  0  0  0  0
    0.4125    1.5376    0.5407 N   0  0  0  0  0  0  0  0  0  0  0  0
   -0.8248    1.8688    0.4113 C   0  0  0  0  0  0  0  0  0  0  0  0
   -1.3913    3.1444    0.4477 N   0  0  0  0  0  0  0  0  0  0  0  0
   -0.8273    4.1824    1.2903 C   0  0  0  0  0  0  0  0  0  0  0  0
   -3.3200    3.5581   -0.1373 H   0  0  0  0  0  0  0  0  0  0  0  0
   -4.0173    1.2631    0.1023 H   0  0  0  0  0  0  0  0  0  0  0  0
   -3.3011   -0.9622   -2.5912 H   0  0  0  0  0  0  0  0  0  0  0  0
   -5.7457   -0.8015   -3.0034 H   0  0  0  0  0  0  0  0  0  0  0  0
   -7.3520   -1.2679   -1.1664 H   0  0  0  0  0  0  0  0  0  0  0  0
   -6.5103   -1.9249    1.0833 H   0  0  0  0  0  0  0  0  0  0  0  0
   -3.0344   -2.3208    1.6018 H   0  0  0  0  0  0  0  0  0  0  0  0
    2.6023    0.7632    0.5981 H   0  0  0  0  0  0  0  0  0  0  0  0
    2.5931   -1.4034   -0.8227 H   0  0  0  0  0  0  0  0  0  0  0  0
    2.0784   -2.1569    0.6850 H   0  0  0  0  0  0  0  0  0  0  0  0
    4.4473   -2.4356    0.5334 H   0  0  0  0  0  0  0  0  0  0  0  0
    4.0893   -1.3367    1.8585 H   0  0  0  0  0  0  0  0  0  0  0  0
    4.7531    0.6149    0.4562 H   0  0  0  0  0  0  0  0  0  0  0  0
    6.8574   -1.6045    0.5416 H   0  0  0  0  0  0  0  0  0  0  0  0
    6.4262   -0.5271    1.8822 H   0  0  0  0  0  0  0  0  0  0  0  0
    7.1728    0.1355    0.4225 H   0  0  0  0  0  0  0  0  0  0  0  0
    5.4186   -1.4795   -1.6800 H   0  0  0  0  0  0  0  0  0  0  0  0
    5.9374    0.2140   -1.7203 H   0  0  0  0  0  0  0  0  0  0  0  0
    4.2225   -0.1760   -1.8136 H   0  0  0  0  0  0  0  0  0  0  0  0
   -1.3507    5.1303    1.1279 H   0  0  0  0  0  0  0  0  0  0  0  0
    0.2296    4.3398    1.0522 H   0  0  0  0  0  0  0  0  0  0  0  0
   -0.9126    3.9145    2.3486 H   0  0  0  0  0  0  0  0  0  0  0  0
  1  2  1  0
  2  3  2  0
  3  4  1  0
  4  5  2  3
  5  6  1  0
  6  7  2  0
  7  8  1  0
  8  9  2  0
  9 10  1  0
 10 11  2  0
 11 12  1  0
  4 13  1  0
 13 14  2  0
 14 15  1  0
 15 16  1  0
 16 17  1  0
 17 18  1  0
 18 19  1  0
 18 20  1  0
 14 21  1  0
 21 22  2  0
 22 23  1  0
 23 24  1  0
 23  1  1  0
 22  3  1  0
 11  6  1  0
  1 25  1  0
  2 26  1  0
  7 27  1  0
  8 28  1  0
  9 29  1  0
 10 30  1  0
 12 31  1  0
 15 32  1  0
 16 33  1  0
 16 34  1  0
 17 35  1  0
 17 36  1  0
 18 37  1  0
 19 38  1  0
 19 39  1  0
 19 40  1  0
 20 41  1  0
 20 42  1  0
 20 43  1  0
 24 44  1  0
 24 45  1  0
 24 46  1  0
M  END
>  <ScrubInfo>  (5) 
{"isomerGroup": 0, "isomerId": 4, "confId": 0, "nr_conformers:": 1, "nr_isomers:": 9}

$$$$
_i5
     RDKit          3D

 46 48  0  0  0  0  0  0  0  0999 V2000
   -0.4484   -2.3559    0.0428 N   0  0  0  0  0  0  0  0  0  0  0  0
   -0.2014   -1.0017   -0.0570 C   0  0  0  0  0  0  0  0  0  0  0  0
   -1.3427   -0.3047   -0.3591 N   0  0  0  0  0  0  0  0  0  0  0  0
   -1.3063    1.1519   -0.4236 C   0  0  0  0  0  0  0  0  0  0  0  0
   -2.6170    1.7086   -0.9863 C   0  0  0  0  0  0  0  0  0  0  0  0
   -3.8729    1.4679   -0.1242 C   0  0  0  0  0  0  0  0  0  0  0  0
   -3.7442    2.0607    1.2793 C   0  0  0  0  0  0  0  0  0  0  0  0
   -5.0990    2.0605   -0.8250 C   0  0  0  0  0  0  0  0  0  0  0  0
    0.9575   -0.4311    0.1144 N   0  0  0  0  0  0  0  0  0  0  0  0
    2.0659   -1.2111    0.4193 C   0  0  0  0  0  0  0  0  0  0  0  0
    3.2519   -0.7474    0.6510 N   0  0  0  0  0  0  0  0  0  0  0  0
    3.4459    0.6384    0.5242 C   0  0  0  0  0  0  0  0  0  0  0  0
    3.4537    1.4361    1.6729 C   0  0  0  0  0  0  0  0  0  0  0  0
    3.6673    2.8135    1.5822 C   0  0  0  0  0  0  0  0  0  0  0  0
    3.8864    3.4048    0.3381 C   0  0  0  0  0  0  0  0  0  0  0  0
    3.8978    2.6212   -0.8169 C   0  0  0  0  0  0  0  0  0  0  0  0
    3.6841    1.2449   -0.7197 C   0  0  0  0  0  0  0  0  0  0  0  0
    3.7094    0.4682   -1.8495 O   0  0  0  0  0  0  0  0  0  0  0  0
    1.8584   -2.6343    0.5015 C   0  0  0  0  0  0  0  0  0  0  0  0
    2.6640   -3.7562    0.7353 C   0  0  0  0  0  0  0  0  0  0  0  0
    1.9658   -4.9036    0.6831 N   0  0  0  0  0  0  0  0  0  0  0  0
    0.7011   -4.4990    0.4041 N   0  0  0  0  0  0  0  0  0  0  0  0
   -0.3363   -5.4890    0.2712 C   0  0  0  0  0  0  0  0  0  0  0  0
    0.6073   -3.1477    0.3020 C   0  0  0  0  0  0  0  0  0  0  0  0
   -1.3181   -2.6972   -0.3426 H   0  0  0  0  0  0  0  0  0  0  0  0
   -2.1516   -0.6525    0.1393 H   0  0  0  0  0  0  0  0  0  0  0  0
   -0.4945    1.4656   -1.0916 H   0  0  0  0  0  0  0  0  0  0  0  0
   -1.0922    1.5702    0.5654 H   0  0  0  0  0  0  0  0  0  0  0  0
   -2.7839    1.2754   -1.9815 H   0  0  0  0  0  0  0  0  0  0  0  0
   -2.4896    2.7888   -1.1360 H   0  0  0  0  0  0  0  0  0  0  0  0
   -4.0433    0.3893   -0.0263 H   0  0  0  0  0  0  0  0  0  0  0  0
   -2.9638    1.5541    1.8551 H   0  0  0  0  0  0  0  0  0  0  0  0
   -3.5028    3.1281    1.2390 H   0  0  0  0  0  0  0  0  0  0  0  0
   -4.6806    1.9471    1.8363 H   0  0  0  0  0  0  0  0  0  0  0  0
   -6.0099    1.8615   -0.2503 H   0  0  0  0  0  0  0  0  0  0  0  0
   -5.0040    3.1452   -0.9441 H   0  0  0  0  0  0  0  0  0  0  0  0
   -5.2301    1.6196   -1.8189 H   0  0  0  0  0  0  0  0  0  0  0  0
    3.2892    0.9743    2.6422 H   0  0  0  0  0  0  0  0  0  0  0  0
    3.6662    3.4208    2.4832 H   0  0  0  0  0  0  0  0  0  0  0  0
    4.0551    4.4763    0.2697 H   0  0  0  0  0  0  0  0  0  0  0  0
    4.0786    3.0942   -1.7765 H   0  0  0  0  0  0  0  0  0  0  0  0
    3.8663    1.0383   -2.6165 H   0  0  0  0  0  0  0  0  0  0  0  0
    3.7275   -3.7889    0.9352 H   0  0  0  0  0  0  0  0  0  0  0  0
   -0.3606   -6.0900    1.1838 H   0  0  0  0  0  0  0  0  0  0  0  0
   -0.1041   -6.1157   -0.5935 H   0  0  0  0  0  0  0  0  0  0  0  0
   -1.3018   -4.9996    0.1272 H   0  0  0  0  0  0  0  0  0  0  0  0
  1  2  1  0
  2  3  1  0
  3  4  1  0
  4  5  1  0
  5  6  1  0
  6  7  1  0
  6  8  1  0
  2  9  2  0
  9 10  1  0
 10 11  2  3
 11 12  1  0
 12 13  2  0
 13 14  1  0
 14 15  2  0
 15 16  1  0
 16 17  2  0
 17 18  1  0
 10 19  1  0
 19 20  1  0
 20 21  2  0
 21 22  1  0
 22 23  1  0
 22 24  1  0
 24  1  1  0
 17 12  1  0
 24 19  2  0
  1 25  1  0
  3 26  1  0
  4 27  1  0
  4 28  1  0
  5 29  1  0
  5 30  1  0
  6 31  1  0
  7 32  1  0
  7 33  1  0
  7 34  1  0
  8 35  1  0
  8 36  1  0
  8 37  1  0
 13 38  1  0
 14 39  1  0
 15 40  1  0
 16 41  1  0
 18 42  1  0
 20 43  1  0
 23 44  1  0
 23 45  1  0
 23 46  1  0
M  END
>  <ScrubInfo>  (6) 
{"isomerGroup": 0, "isomerId": 5, "confId": 0, "nr_conformers:": 1, "nr_isomers:": 9}

$$$$
_i6
     RDKit          3D

 46 48  0  0  0  0  0  0  0  0999 V2000
   -2.2857    3.1791   -0.3465 N   0  0  0  0  0  0  0  0  0  0  0  0
   -2.7714    1.9307   -0.7225 C   0  0  0  0  0  0  0  0  0  0  0  0
   -1.8353    0.9743   -0.6817 C   0  0  0  0  0  0  0  0  0  0  0  0
   -1.7067   -0.4497   -0.9685 C   0  0  0  0  0  0  0  0  0  0  0  0
   -2.7539   -1.2450   -1.3865 N   0  0  0  0  0  0  0  0  0  0  0  0
   -3.9358   -1.3431   -0.6103 C   0  0  0  0  0  0  0  0  0  0  0  0
   -5.1694   -1.2786   -1.2708 C   0  0  0  0  0  0  0  0  0  0  0  0
   -6.3657   -1.4032   -0.5601 C   0  0  0  0  0  0  0  0  0  0  0  0
   -6.3398   -1.6200    0.8166 C   0  0  0  0  0  0  0  0  0  0  0  0
   -5.1191   -1.7322    1.4801 C   0  0  0  0  0  0  0  0  0  0  0  0
   -3.9282   -1.6159    0.7668 C   0  0  0  0  0  0  0  0  0  0  0  0
   -2.7750   -1.8047    1.4781 O   0  0  0  0  0  0  0  0  0  0  0  0
   -0.5419   -1.0144   -0.8187 N   0  0  0  0  0  0  0  0  0  0  0  0
    0.5250   -0.2395   -0.4106 C   0  0  0  0  0  0  0  0  0  0  0  0
    1.6321   -0.8910   -0.3499 N   0  0  0  0  0  0  0  0  0  0  0  0
    2.8234   -0.1613    0.0813 C   0  0  0  0  0  0  0  0  0  0  0  0
    4.0062   -1.1327    0.0580 C   0  0  0  0  0  0  0  0  0  0  0  0
    5.3593   -0.4622    0.3563 C   0  0  0  0  0  0  0  0  0  0  0  0
    6.4920   -1.4753    0.1737 C   0  0  0  0  0  0  0  0  0  0  0  0
    5.4193    0.1309    1.7646 C   0  0  0  0  0  0  0  0  0  0  0  0
    0.4956    1.0939   -0.0687 N   0  0  0  0  0  0  0  0  0  0  0  0
   -0.6425    1.6869   -0.1797 C   0  0  0  0  0  0  0  0  0  0  0  0
   -0.9795    3.0100    0.1062 N   0  0  0  0  0  0  0  0  0  0  0  0
   -0.0219    4.0832   -0.0787 C   0  0  0  0  0  0  0  0  0  0  0  0
   -2.9150    3.6817    0.2845 H   0  0  0  0  0  0  0  0  0  0  0  0
   -3.8113    1.8289   -0.9984 H   0  0  0  0  0  0  0  0  0  0  0  0
   -2.4123   -2.1881   -1.5709 H   0  0  0  0  0  0  0  0  0  0  0  0
   -5.2029   -1.1131   -2.3454 H   0  0  0  0  0  0  0  0  0  0  0  0
   -7.3173   -1.3350   -1.0816 H   0  0  0  0  0  0  0  0  0  0  0  0
   -7.2694   -1.7193    1.3714 H   0  0  0  0  0  0  0  0  0  0  0  0
   -5.0935   -1.9292    2.5485 H   0  0  0  0  0  0  0  0  0  0  0  0
   -2.0276   -1.9196    0.8633 H   0  0  0  0  0  0  0  0  0  0  0  0
    3.0305    0.6753   -0.5970 H   0  0  0  0  0  0  0  0  0  0  0  0
    2.6821    0.2249    1.0969 H   0  0  0  0  0  0  0  0  0  0  0  0
    4.0532   -1.6048   -0.9325 H   0  0  0  0  0  0  0  0  0  0  0  0
    3.8234   -1.9447    0.7741 H   0  0  0  0  0  0  0  0  0  0  0  0
    5.5160    0.3499   -0.3650 H   0  0  0  0  0  0  0  0  0  0  0  0
    6.4918   -1.8806   -0.8437 H   0  0  0  0  0  0  0  0  0  0  0  0
    6.3930   -2.3128    0.8727 H   0  0  0  0  0  0  0  0  0  0  0  0
    7.4664   -1.0051    0.3438 H   0  0  0  0  0  0  0  0  0  0  0  0
    5.2012   -0.6272    2.5244 H   0  0  0  0  0  0  0  0  0  0  0  0
    4.7031    0.9495    1.8831 H   0  0  0  0  0  0  0  0  0  0  0  0
    6.4143    0.5397    1.9715 H   0  0  0  0  0  0  0  0  0  0  0  0
   -0.4342    5.0287    0.2881 H   0  0  0  0  0  0  0  0  0  0  0  0
    0.2305    4.2009   -1.1377 H   0  0  0  0  0  0  0  0  0  0  0  0
    0.8971    3.8801    0.4803 H   0  0  0  0  0  0  0  0  0  0  0  0
  1  2  1  0
  2  3  2  0
  3  4  1  0
  4  5  1  0
  5  6  1  0
  6  7  2  0
  7  8  1  0
  8  9  2  0
  9 10  1  0
 10 11  2  0
 11 12  1  0
  4 13  2  0
 13 14  1  0
 14 15  2  3
 15 16  1  0
 16 17  1  0
 17 18  1  0
 18 19  1  0
 18 20  1  0
 14 21  1  0
 21 22  2  0
 22 23  1  0
 23 24  1  0
 23  1  1  0
 22  3  1  0
 11  6  1  0
  1 25  1  0
  2 26  1  0
  5 27  1  0
  7 28  1  0
  8 29  1  0
  9 30  1  0
 10 31  1  0
 12 32  1  0
 16 33  1  0
 16 34  1  0
 17 35  1  0
 17 36  1  0
 18 37  1  0
 19 38  1  0
 19 39  1  0
 19 40  1  0
 20 41  1  0
 20 42  1  0
 20 43  1  0
 24 44  1  0
 24 45  1  0
 24 46  1  0
M  END
>  <ScrubInfo>  (7) 
{"isomerGroup": 0, "isomerId": 6, "confId": 0, "nr_conformers:": 1, "nr_isomers:": 9}

$$$$
_i7
     RDKit          3D

 46 48  0  0  0  0  0  0  0  0999 V2000
   -2.0975    2.6605   -0.6665 N   0  0  0  0  0  0  0  0  0  0  0  0
   -2.6928    1.4341   -0.3955 C   0  0  0  0  0  0  0  0  0  0  0  0
   -1.8115    0.4496   -0.1683 C   0  0  0  0  0  0  0  0  0  0  0  0
   -1.7768   -0.9803    0.1993 C   0  0  0  0  0  0  0  0  0  0  0  0
   -2.7624   -1.8162    0.3571 N   0  0  0  0  0  0  0  0  0  0  0  0
   -4.0847   -1.4123    0.1177 C   0  0  0  0  0  0  0  0  0  0  0  0
   -4.6250   -1.4428   -1.1696 C   0  0  0  0  0  0  0  0  0  0  0  0
   -5.9471   -1.0436   -1.3859 C   0  0  0  0  0  0  0  0  0  0  0  0
   -6.7389   -0.6257   -0.3130 C   0  0  0  0  0  0  0  0  0  0  0  0
   -6.2172   -0.6176    0.9805 C   0  0  0  0  0  0  0  0  0  0  0  0
   -4.9039   -1.0217    1.1844 C   0  0  0  0  0  0  0  0  0  0  0  0
   -4.4123   -1.0374    2.4614 O   0  0  0  0  0  0  0  0  0  0  0  0
   -0.4997   -1.4315    0.3933 N   0  0  0  0  0  0  0  0  0  0  0  0
    0.6619   -0.7280    0.2449 C   0  0  0  0  0  0  0  0  0  0  0  0
    1.7796   -1.3354    0.4776 N   0  0  0  0  0  0  0  0  0  0  0  0
    3.0101   -0.5569    0.3065 C   0  0  0  0  0  0  0  0  0  0  0  0
    4.1928   -1.4713    0.6375 C   0  0  0  0  0  0  0  0  0  0  0  0
    5.5842   -0.8231    0.5135 C   0  0  0  0  0  0  0  0  0  0  0  0
    5.8933   -0.3773   -0.9156 C   0  0  0  0  0  0  0  0  0  0  0  0
    5.7740    0.3389    1.4884 C   0  0  0  0  0  0  0  0  0  0  0  0
    0.6599    0.5932   -0.1482 N   0  0  0  0  0  0  0  0  0  0  0  0
   -0.4917    1.1515   -0.3574 C   0  0  0  0  0  0  0  0  0  0  0  0
   -0.7281    2.4659   -0.7675 N   0  0  0  0  0  0  0  0  0  0  0  0
    0.1665    3.5404   -0.3801 C   0  0  0  0  0  0  0  0  0  0  0  0
   -2.5426    3.1704   -1.4329 H   0  0  0  0  0  0  0  0  0  0  0  0
   -3.7717    1.3844   -0.3832 H   0  0  0  0  0  0  0  0  0  0  0  0
   -4.0163   -1.7796   -2.0040 H   0  0  0  0  0  0  0  0  0  0  0  0
   -6.3629   -1.0672   -2.3903 H   0  0  0  0  0  0  0  0  0  0  0  0
   -7.7687   -0.3209   -0.4830 H   0  0  0  0  0  0  0  0  0  0  0  0
   -6.8307   -0.3129    1.8229 H   0  0  0  0  0  0  0  0  0  0  0  0
   -3.5450   -1.4826    2.3844 H   0  0  0  0  0  0  0  0  0  0  0  0
   -0.3831   -2.4013    0.6459 H   0  0  0  0  0  0  0  0  0  0  0  0
    3.0920   -0.2049   -0.7276 H   0  0  0  0  0  0  0  0  0  0  0  0
    3.0076    0.3049    0.9828 H   0  0  0  0  0  0  0  0  0  0  0  0
    4.1541   -2.3531   -0.0161 H   0  0  0  0  0  0  0  0  0  0  0  0
    4.0710   -1.8539    1.6598 H   0  0  0  0  0  0  0  0  0  0  0  0
    6.3178   -1.5956    0.7800 H   0  0  0  0  0  0  0  0  0  0  0  0
    5.7448   -1.2007   -1.6219 H   0  0  0  0  0  0  0  0  0  0  0  0
    6.9360   -0.0516   -0.9982 H   0  0  0  0  0  0  0  0  0  0  0  0
    5.2610    0.4601   -1.2272 H   0  0  0  0  0  0  0  0  0  0  0  0
    5.5396    0.0310    2.5127 H   0  0  0  0  0  0  0  0  0  0  0  0
    5.1390    1.1931    1.2331 H   0  0  0  0  0  0  0  0  0  0  0  0
    6.8134    0.6848    1.4743 H   0  0  0  0  0  0  0  0  0  0  0  0
   -0.1303    4.4763   -0.8648 H   0  0  0  0  0  0  0  0  0  0  0  0
    1.1934    3.3172   -0.6870 H   0  0  0  0  0  0  0  0  0  0  0  0
    0.1487    3.6894    0.7046 H   0  0  0  0  0  0  0  0  0  0  0  0
  1  2  1  0
  2  3  2  0
  3  4  1  0
  4  5  2  3
  5  6  1  0
  6  7  2  0
  7  8  1  0
  8  9  2  0
  9 10  1  0
 10 11  2  0
 11 12  1  0
  4 13  1  0
 13 14  1  0
 14 15  2  3
 15 16  1  0
 16 17  1  0
 17 18  1  0
 18 19  1  0
 18 20  1  0
 14 21  1  0
 21 22  2  0
 22 23  1  0
 23 24  1  0
 23  1  1  0
 22  3  1  0
 11  6  1  0
  1 25  1  0
  2 26  1  0
  7 27  1  0
  8 28  1  0
  9 29  1  0
 10 30  1  0
 12 31  1  0
 13 32  1  0
 16 33  1  0
 16 34  1  0
 17 35  1  0
 17 36  1  0
 18 37  1  0
 19 38  1  0
 19 39  1  0
 19 40  1  0
 20 41  1  0
 20 42  1  0
 20 43  1  0
 24 44  1  0
 24 45  1  0
 24 46  1  0
M  END
>  <ScrubInfo>  (8) 
{"isomerGroup": 0, "isomerId": 7, "confId": 0, "nr_conformers:": 1, "nr_isomers:": 9}

$$$$
_i8
     RDKit          3D

 46 48  0  0  0  0  0  0  0  0999 V2000
    0.2937    2.5179    0.0114 N   0  0  0  0  0  0  0  0  0  0  0  0
    1.0896    1.4108    0.2256 C   0  0  0  0  0  0  0  0  0  0  0  0
    2.3571    1.5974    0.3774 N   0  0  0  0  0  0  0  0  0  0  0  0
    3.2339    0.4536    0.6260 C   0  0  0  0  0  0  0  0  0  0  0  0
    3.6818   -0.1522   -0.7056 C   0  0  0  0  0  0  0  0  0  0  0  0
    4.5960   -1.3860   -0.5926 C   0  0  0  0  0  0  0  0  0  0  0  0
    3.8875   -2.5729    0.0608 C   0  0  0  0  0  0  0  0  0  0  0  0
    5.9055   -1.0784    0.1329 C   0  0  0  0  0  0  0  0  0  0  0  0
    0.3810    0.2253    0.2374 N   0  0  0  0  0  0  0  0  0  0  0  0
   -0.9687   -0.0311    0.0914 C   0  0  0  0  0  0  0  0  0  0  0  0
   -1.4140   -1.2504    0.1436 N   0  0  0  0  0  0  0  0  0  0  0  0
   -2.7800   -1.5456    0.0629 C   0  0  0  0  0  0  0  0  0  0  0  0
   -3.3071   -2.0127   -1.1446 C   0  0  0  0  0  0  0  0  0  0  0  0
   -4.6581   -2.3523   -1.2454 C   0  0  0  0  0  0  0  0  0  0  0  0
   -5.4909   -2.2416   -0.1317 C   0  0  0  0  0  0  0  0  0  0  0  0
   -4.9761   -1.7971    1.0869 C   0  0  0  0  0  0  0  0  0  0  0  0
   -3.6259   -1.4582    1.1811 C   0  0  0  0  0  0  0  0  0  0  0  0
   -3.1124   -1.0140    2.3713 O   0  0  0  0  0  0  0  0  0  0  0  0
   -1.7149    1.1961   -0.1302 C   0  0  0  0  0  0  0  0  0  0  0  0
   -3.0515    1.5688   -0.3639 C   0  0  0  0  0  0  0  0  0  0  0  0
   -3.2073    2.8934   -0.5142 N   0  0  0  0  0  0  0  0  0  0  0  0
   -1.9527    3.3797   -0.3855 N   0  0  0  0  0  0  0  0  0  0  0  0
   -1.7345    4.8005   -0.4879 C   0  0  0  0  0  0  0  0  0  0  0  0
   -1.0397    2.3972   -0.1586 C   0  0  0  0  0  0  0  0  0  0  0  0
    0.7992    3.3955    0.0001 H   0  0  0  0  0  0  0  0  0  0  0  0
    4.1047    0.8250    1.1769 H   0  0  0  0  0  0  0  0  0  0  0  0
    2.7593   -0.2859    1.2787 H   0  0  0  0  0  0  0  0  0  0  0  0
    4.2012    0.6212   -1.2871 H   0  0  0  0  0  0  0  0  0  0  0  0
    2.7999   -0.4252   -1.2992 H   0  0  0  0  0  0  0  0  0  0  0  0
    4.8526   -1.6846   -1.6178 H   0  0  0  0  0  0  0  0  0  0  0  0
    2.9401   -2.7881   -0.4444 H   0  0  0  0  0  0  0  0  0  0  0  0
    4.5100   -3.4721   -0.0017 H   0  0  0  0  0  0  0  0  0  0  0  0
    3.6773   -2.3907    1.1193 H   0  0  0  0  0  0  0  0  0  0  0  0
    5.7419   -0.8588    1.1928 H   0  0  0  0  0  0  0  0  0  0  0  0
    6.5862   -1.9347    0.0746 H   0  0  0  0  0  0  0  0  0  0  0  0
    6.4105   -0.2197   -0.3215 H   0  0  0  0  0  0  0  0  0  0  0  0
    0.9071   -0.6199    0.3885 H   0  0  0  0  0  0  0  0  0  0  0  0
   -2.6573   -2.1130   -2.0097 H   0  0  0  0  0  0  0  0  0  0  0  0
   -5.0575   -2.7086   -2.1917 H   0  0  0  0  0  0  0  0  0  0  0  0
   -6.5420   -2.5081   -0.2131 H   0  0  0  0  0  0  0  0  0  0  0  0
   -5.6365   -1.7208    1.9449 H   0  0  0  0  0  0  0  0  0  0  0  0
   -3.8057   -1.0565    3.0482 H   0  0  0  0  0  0  0  0  0  0  0  0
   -3.9325    0.9469   -0.4370 H   0  0  0  0  0  0  0  0  0  0  0  0
   -1.9364    5.2464    0.4888 H   0  0  0  0  0  0  0  0  0  0  0  0
   -2.4125    5.2104   -1.2413 H   0  0  0  0  0  0  0  0  0  0  0  0
   -0.7022    4.9931   -0.7881 H   0  0  0  0  0  0  0  0  0  0  0  0
  1  2  1  0
  2  3  2  3
  3  4  1  0
  4  5  1  0
  5  6  1  0
  6  7  1  0
  6  8  1  0
  2  9  1  0
  9 10  1  0
 10 11  2  3
 11 12  1  0
 12 13  2  0
 13 14  1  0
 14 15  2  0
 15 16  1  0
 16 17  2  0
 17 18  1  0
 10 19  1  0
 19 20  1  0
 20 21  2  0
 21 22  1  0
 22 23  1  0
 22 24  1  0
 24  1  1  0
 17 12  1  0
 24 19  2  0
  1 25  1  0
  4 26  1  0
  4 27  1  0
  5 28  1  0
  5 29  1  0
  6 30  1  0
  7 31  1  0
  7 32  1  0
  7 33  1  0
  8 34  1  0
  8 35  1  0
  8 36  1  0
  9 37  1  0
 13 38  1  0
 14 39  1  0
 15 40  1  0
 16 41  1  0
 18 42  1  0
 20 43  1  0
 23 44  1  0
 23 45  1  0
 23 46  1  0
M  END
>  <ScrubInfo>  (9) 
{"isomerGroup": 0, "isomerId": 8, "confId": 0, "nr_conformers:": 1, "nr_isomers:": 9}

$$$$
