REMARK SMILES CC(C)CCNc1nc(Nc2ccccc2O)c2cnn(C)c2n1
REMARK SMILES IDX 7 1 8 2 9 3 18 4 19 5 20 6 21 7 22 8 23 9 24 10 6 11 5 13
REMARK SMILES IDX 4 14 2 15 1 16 3 17 10 18 11 20 12 21 16 22 13 23 15 24
REMARK SMILES IDX 14 25 17 26
REMARK H PARENT 6 12 10 19 17 27
ROOT
ATOM      1  C   UNL     1      -0.595   0.504   0.990  1.00  0.00     0.226 A 
ATOM      2  N   UNL     1       0.642   0.955   1.273  1.00  0.00    -0.195 NA
ATOM      3  C   UNL     1       1.727   0.197   0.978  1.00  0.00     0.147 A 
ATOM      4  C   UNL     1       1.514  -1.055   0.399  1.00  0.00     0.082 A 
ATOM      5  C   UNL     1       2.267  -2.164  -0.038  1.00  0.00     0.149 A 
ATOM      6  N   UNL     1       1.504  -3.142  -0.542  1.00  0.00    -0.179 NA
ATOM      7  N   UNL     1       0.248  -2.655  -0.407  1.00  0.00    -0.250 N 
ATOM      8  C   UNL     1      -0.873  -3.455  -0.833  1.00  0.00     0.176 C 
ATOM      9  C   UNL     1       0.204  -1.407   0.150  1.00  0.00     0.165 A 
ATOM     10  N   UNL     1      -0.884  -0.669   0.412  1.00  0.00    -0.193 NA
ENDROOT
BRANCH   1  11
ATOM     11  N   UNL     1      -1.618   1.375   1.344  1.00  0.00    -0.354 N 
ATOM     12  H   UNL     1      -1.181   2.281   1.471  1.00  0.00     0.163 HD
BRANCH  11  13
ATOM     13  C   UNL     1      -2.793   1.366   0.487  1.00  0.00     0.116 C 
BRANCH  13  14
ATOM     14  C   UNL     1      -3.855   0.412   1.045  1.00  0.00     0.024 C 
BRANCH  14  15
ATOM     15  C   UNL     1      -5.127   0.272   0.187  1.00  0.00    -0.016 C 
ATOM     16  C   UNL     1      -5.858   1.601   0.001  1.00  0.00     0.007 C 
ATOM     17  C   UNL     1      -4.841  -0.377  -1.167  1.00  0.00     0.007 C 
ENDBRANCH  14  15
ENDBRANCH  13  14
ENDBRANCH  11  13
ENDBRANCH   1  11
BRANCH   3  18
ATOM     18  N   UNL     1       2.986   0.724   1.322  1.00  0.00    -0.336 N 
ATOM     19  H   UNL     1       2.800   1.685   1.615  1.00  0.00     0.168 HD
BRANCH  18  20
ATOM     20  C   UNL     1       4.144   0.699   0.507  1.00  0.00     0.082 A 
ATOM     21  C   UNL     1       4.093   0.793  -0.888  1.00  0.00     0.030 A 
ATOM     22  C   UNL     1       5.402   0.728   1.127  1.00  0.00     0.139 A 
ATOM     23  C   UNL     1       5.273   0.859  -1.636  1.00  0.00     0.002 A 
ATOM     24  C   UNL     1       6.580   0.801   0.394  1.00  0.00     0.048 A 
ATOM     25  C   UNL     1       6.514   0.860  -0.996  1.00  0.00     0.004 A 
BRANCH  22  26
ATOM     26  O   UNL     1       5.492   0.662   2.492  1.00  0.00    -0.506 OA
ATOM     27  H   UNL     1       4.585   0.479   2.802  1.00  0.00     0.293 HD
ENDBRANCH  22  26
ENDBRANCH  18  20
ENDBRANCH   3  18
TORSDOF 7
