REMARK SMILES Cc1ccc(Nc2nc(NCC[NH+](C)C)nc3c2cnn3C)c(Br)c1
REMARK SMILES IDX 10 1 11 3 12 4 13 5 14 6 15 7 9 9 8 10 16 11 7 12 17 13
REMARK SMILES IDX 18 14 21 15 19 16 20 17 22 18 6 19 5 21 4 22 23 23 3 24
REMARK SMILES IDX 25 25 2 26 24 27 1 28
REMARK H PARENT 10 2 13 8 6 20
ROOT
ATOM      1  N   UNL     1       3.160   0.896  -1.187  1.00  0.00    -0.348 N 
ATOM      2  H   UNL     1       3.416   1.296  -2.093  1.00  0.00     0.163 HD
ENDROOT
BRANCH   1   3
ATOM      3  C   UNL     1       3.686   1.638  -0.035  1.00  0.00     0.177 C 
BRANCH   3   4
ATOM      4  C   UNL     1       3.716   0.756   1.238  1.00  0.00     0.283 C 
BRANCH   4   5
ATOM      5  N   UNL     1       3.925  -0.699   0.845  1.00  0.00    -0.338 N 
ATOM      6  C   UNL     1       5.358  -1.068   0.641  1.00  0.00     0.332 C 
ATOM      7  C   UNL     1       3.192  -1.657   1.728  1.00  0.00     0.332 C 
ATOM      8  H   UNL     1       3.469  -0.751  -0.086  1.00  0.00     0.347 HD
ENDBRANCH   4   5
ENDBRANCH   3   4
ENDBRANCH   1   3
BRANCH   1   9
ATOM      9  C   UNL     1       1.768   0.810  -1.251  1.00  0.00     0.226 A 
ATOM     10  N   UNL     1       1.082   0.663  -0.105  1.00  0.00    -0.195 NA
ATOM     11  N   UNL     1       1.260   0.786  -2.481  1.00  0.00    -0.193 NA
ATOM     12  C   UNL     1      -0.261   0.431  -0.135  1.00  0.00     0.147 A 
ATOM     13  C   UNL     1      -0.067   0.581  -2.493  1.00  0.00     0.165 A 
ATOM     14  C   UNL     1      -0.881   0.393  -1.389  1.00  0.00     0.082 A 
ATOM     15  N   UNL     1      -0.885   0.511  -3.588  1.00  0.00    -0.250 N 
ATOM     16  C   UNL     1      -2.172   0.236  -1.940  1.00  0.00     0.149 A 
ATOM     17  N   UNL     1      -2.181   0.303  -3.275  1.00  0.00    -0.179 NA
ATOM     18  C   UNL     1      -0.505   0.638  -4.973  1.00  0.00     0.176 C 
BRANCH  12  19
ATOM     19  N   UNL     1      -0.876   0.264   1.117  1.00  0.00    -0.339 N 
ATOM     20  H   UNL     1      -0.454   0.901   1.782  1.00  0.00     0.168 HD
BRANCH  19  21
ATOM     21  C   UNL     1      -2.228  -0.024   1.381  1.00  0.00     0.054 A 
ATOM     22  C   UNL     1      -3.069   1.007   1.822  1.00  0.00     0.027 A 
ATOM     23  C   UNL     1      -2.792  -1.293   1.151  1.00  0.00     0.041 A 
ATOM     24  C   UNL     1      -4.431   0.779   2.036  1.00  0.00     0.005 A 
ATOM     25  C   UNL     1      -4.155  -1.521   1.366  1.00  0.00     0.021 A 
ATOM     26  C   UNL     1      -4.983  -0.488   1.821  1.00  0.00    -0.050 A 
ATOM     27  Br  UNL     1      -1.729  -2.769   0.591  1.00  0.00    -0.049 Br
ATOM     28  C   UNL     1      -6.452  -0.722   2.017  1.00  0.00     0.044 C 
ENDBRANCH  19  21
ENDBRANCH  12  19
ENDBRANCH   1   9
TORSDOF 6
