_i0
     RDKit          3D

 48 50  0  0  0  0  0  0  0  0999 V2000
    3.7157    0.7564    1.2382 C   0  0  0  0  0  0  0  0  0  0  0  0
    3.9253   -0.6994    0.8448 N   0  0  0  0  0  4  0  0  0  0  0  0
    5.3577   -1.0679    0.6407 C   0  0  0  0  0  0  0  0  0  0  0  0
    3.1916   -1.6574    1.7283 C   0  0  0  0  0  0  0  0  0  0  0  0
    3.6862    1.6378   -0.0346 C   0  0  0  0  0  0  0  0  0  0  0  0
    3.1601    0.8961   -1.1873 N   0  0  0  0  0  0  0  0  0  0  0  0
    1.7677    0.8100   -1.2512 C   0  0  0  0  0  0  0  0  0  0  0  0
    1.0819    0.6630   -0.1052 N   0  0  0  0  0  0  0  0  0  0  0  0
    1.2599    0.7860   -2.4805 N   0  0  0  0  0  0  0  0  0  0  0  0
   -0.2608    0.4315   -0.1345 C   0  0  0  0  0  0  0  0  0  0  0  0
   -0.0670    0.5814   -2.4925 C   0  0  0  0  0  0  0  0  0  0  0  0
   -0.8759    0.2638    1.1169 N   0  0  0  0  0  0  0  0  0  0  0  0
   -0.8812    0.3926   -1.3894 C   0  0  0  0  0  0  0  0  0  0  0  0
   -0.8853    0.5106   -3.5880 N   0  0  0  0  0  0  0  0  0  0  0  0
   -2.2280   -0.0241    1.3810 C   0  0  0  0  0  0  0  0  0  0  0  0
   -2.1717    0.2358   -1.9396 C   0  0  0  0  0  0  0  0  0  0  0  0
   -2.1812    0.3035   -3.2750 N   0  0  0  0  0  0  0  0  0  0  0  0
   -0.5052    0.6385   -4.9729 C   0  0  0  0  0  0  0  0  0  0  0  0
   -3.0688    1.0070    1.8216 C   0  0  0  0  0  0  0  0  0  0  0  0
   -2.7920   -1.2928    1.1507 C   0  0  0  0  0  0  0  0  0  0  0  0
   -4.4313    0.7792    2.0358 C   0  0  0  0  0  0  0  0  0  0  0  0
   -1.7293   -2.7693    0.5908 Br  0  0  0  0  0  0  0  0  0  0  0  0
   -4.1554   -1.5209    1.3664 C   0  0  0  0  0  0  0  0  0  0  0  0
   -4.9826   -0.4877    1.8210 C   0  0  0  0  0  0  0  0  0  0  0  0
   -6.4524   -0.7216    2.0169 C   0  0  0  0  0  0  0  0  0  0  0  0
    2.7611    0.8217    1.7698 H   0  0  0  0  0  0  0  0  0  0  0  0
    4.5123    1.0507    1.9296 H   0  0  0  0  0  0  0  0  0  0  0  0
    3.4691   -0.7511   -0.0856 H   0  0  0  0  0  0  0  0  0  0  0  0
    5.3944   -2.0822    0.2348 H   0  0  0  0  0  0  0  0  0  0  0  0
    5.7985   -0.3676   -0.0730 H   0  0  0  0  0  0  0  0  0  0  0  0
    5.8709   -1.0155    1.6046 H   0  0  0  0  0  0  0  0  0  0  0  0
    3.6049   -1.5827    2.7374 H   0  0  0  0  0  0  0  0  0  0  0  0
    3.3248   -2.6646    1.3247 H   0  0  0  0  0  0  0  0  0  0  0  0
    2.1307   -1.3949    1.7191 H   0  0  0  0  0  0  0  0  0  0  0  0
    4.7180    1.9204   -0.2748 H   0  0  0  0  0  0  0  0  0  0  0  0
    3.1415    2.5727    0.1445 H   0  0  0  0  0  0  0  0  0  0  0  0
    3.4158    1.2961   -2.0930 H   0  0  0  0  0  0  0  0  0  0  0  0
   -0.4538    0.9008    1.7824 H   0  0  0  0  0  0  0  0  0  0  0  0
   -3.1139    0.0814   -1.4303 H   0  0  0  0  0  0  0  0  0  0  0  0
   -1.0298    1.4994   -5.3949 H   0  0  0  0  0  0  0  0  0  0  0  0
    0.5740    0.7865   -5.0518 H   0  0  0  0  0  0  0  0  0  0  0  0
   -0.7923   -0.2781   -5.4943 H   0  0  0  0  0  0  0  0  0  0  0  0
   -2.6765    2.0080    1.9858 H   0  0  0  0  0  0  0  0  0  0  0  0
   -5.0634    1.6015    2.3676 H   0  0  0  0  0  0  0  0  0  0  0  0
   -4.5786   -2.5071    1.1843 H   0  0  0  0  0  0  0  0  0  0  0  0
   -6.6449   -1.7532    2.3298 H   0  0  0  0  0  0  0  0  0  0  0  0
   -6.9892   -0.5282    1.0831 H   0  0  0  0  0  0  0  0  0  0  0  0
   -6.8518   -0.0658    2.7976 H   0  0  0  0  0  0  0  0  0  0  0  0
  1  2  1  0
  2  3  1  0
  2  4  1  0
  5  1  1  0
  6  5  1  0
  7  6  1  0
  8  7  2  0
  7  9  1  0
 10  8  1  0
  9 11  2  0
 12 10  1  0
 13 10  2  0
 11 13  1  0
 14 11  1  0
 15 12  1  0
 13 16  1  0
 17 14  1  0
 14 18  1  0
 19 15  2  0
 15 20  1  0
 16 17  2  0
 21 19  1  0
 20 22  1  0
 20 23  2  0
 24 21  2  0
 23 24  1  0
 25 24  1  0
  1 26  1  0
  1 27  1  0
  2 28  1  0
  3 29  1  0
  3 30  1  0
  3 31  1  0
  4 32  1  0
  4 33  1  0
  4 34  1  0
  5 35  1  0
  5 36  1  0
  6 37  1  0
 12 38  1  0
 16 39  1  0
 18 40  1  0
 18 41  1  0
 18 42  1  0
 19 43  1  0
 21 44  1  0
 23 45  1  0
 25 46  1  0
 25 47  1  0
 25 48  1  0
M  CHG  1   2   1
M  END
>  <ScrubInfo>  (1) 
{"isomerGroup": 0, "isomerId": 0, "confId": 0, "nr_conformers:": 1, "nr_isomers:": 9}

$$$$
_i1
     RDKit          3D

 48 50  0  0  0  0  0  0  0  0999 V2000
    0.4078    0.5573   -0.2375 N   0  0  0  0  0  0  0  0  0  0  0  0
    1.4571    1.3251    0.2416 C   0  0  0  0  0  0  0  0  0  0  0  0
    2.7708    0.9071    0.2015 N   0  0  0  0  0  0  0  0  0  0  0  0
    3.3157   -0.3935    0.1461 C   0  0  0  0  0  0  0  0  0  0  0  0
    2.6014   -1.5255    0.5612 C   0  0  0  0  0  0  0  0  0  0  0  0
    3.1501   -2.8092    0.4552 C   0  0  0  0  0  0  0  0  0  0  0  0
    4.4324   -2.9948   -0.0686 C   0  0  0  0  0  0  0  0  0  0  0  0
    5.0093   -4.3731   -0.2084 C   0  0  0  0  0  0  0  0  0  0  0  0
    5.1529   -1.8787   -0.5036 C   0  0  0  0  0  0  0  0  0  0  0  0
    4.6024   -0.5972   -0.3919 C   0  0  0  0  0  0  0  0  0  0  0  0
    5.6494    0.8728   -0.9971 Br  0  0  0  0  0  0  0  0  0  0  0  0
    1.1086    2.5383    0.6881 C   0  0  0  0  0  0  0  0  0  0  0  0
    1.7672    3.7210    1.2542 C   0  0  0  0  0  0  0  0  0  0  0  0
    0.9283    4.6840    1.5385 N   0  0  0  0  0  0  0  0  0  0  0  0
   -0.3450    4.1835    1.2235 N   0  0  0  0  0  0  0  0  0  0  0  0
   -1.4426    5.1158    1.1212 C   0  0  0  0  0  0  0  0  0  0  0  0
   -0.3208    2.9226    0.6516 C   0  0  0  0  0  0  0  0  0  0  0  0
   -1.2785    2.2044    0.1668 N   0  0  0  0  0  0  0  0  0  0  0  0
   -0.8888    0.9873   -0.3424 C   0  0  0  0  0  0  0  0  0  0  0  0
   -1.7620    0.2334   -0.9356 N   0  0  0  0  0  0  0  0  0  0  0  0
   -3.1202    0.7851   -1.0365 C   0  0  0  0  0  0  0  0  0  0  0  0
   -4.0423   -0.2029   -1.7632 C   0  0  0  0  0  0  0  0  0  0  0  0
   -4.3109   -1.4945   -1.0043 N   0  0  0  0  0  4  0  0  0  0  0  0
   -3.0991   -2.3678   -0.8430 C   0  0  0  0  0  0  0  0  0  0  0  0
   -5.0333   -1.2942    0.2939 C   0  0  0  0  0  0  0  0  0  0  0  0
    0.6717   -0.2510   -0.7820 H   0  0  0  0  0  0  0  0  0  0  0  0
    3.4851    1.6282    0.2813 H   0  0  0  0  0  0  0  0  0  0  0  0
    1.6225   -1.4260    1.0216 H   0  0  0  0  0  0  0  0  0  0  0  0
    2.5735   -3.6650    0.8012 H   0  0  0  0  0  0  0  0  0  0  0  0
    6.0991   -4.3525   -0.1030 H   0  0  0  0  0  0  0  0  0  0  0  0
    4.6208   -5.0402    0.5683 H   0  0  0  0  0  0  0  0  0  0  0  0
    4.7556   -4.7867   -1.1892 H   0  0  0  0  0  0  0  0  0  0  0  0
    6.1470   -2.0094   -0.9270 H   0  0  0  0  0  0  0  0  0  0  0  0
    2.8553    3.7568    1.3927 H   0  0  0  0  0  0  0  0  0  0  0  0
   -1.4465    5.5927    0.1362 H   0  0  0  0  0  0  0  0  0  0  0  0
   -1.3611    5.8962    1.8847 H   0  0  0  0  0  0  0  0  0  0  0  0
   -2.4007    4.6064    1.2656 H   0  0  0  0  0  0  0  0  0  0  0  0
   -3.5296    1.0191   -0.0475 H   0  0  0  0  0  0  0  0  0  0  0  0
   -3.1003    1.7095   -1.6275 H   0  0  0  0  0  0  0  0  0  0  0  0
   -5.0221    0.2540   -1.9410 H   0  0  0  0  0  0  0  0  0  0  0  0
   -3.6236   -0.4948   -2.7330 H   0  0  0  0  0  0  0  0  0  0  0  0
   -4.9493   -2.0225   -1.6109 H   0  0  0  0  0  0  0  0  0  0  0  0
   -2.5619   -2.4011   -1.7941 H   0  0  0  0  0  0  0  0  0  0  0  0
   -2.4752   -1.9816   -0.0342 H   0  0  0  0  0  0  0  0  0  0  0  0
   -3.4523   -3.3711   -0.5875 H   0  0  0  0  0  0  0  0  0  0  0  0
   -5.9103   -0.6697    0.1051 H   0  0  0  0  0  0  0  0  0  0  0  0
   -4.3590   -0.8213    1.0119 H   0  0  0  0  0  0  0  0  0  0  0  0
   -5.3486   -2.2766    0.6561 H   0  0  0  0  0  0  0  0  0  0  0  0
  1  2  1  0
  2  3  1  0
  3  4  1  0
  4  5  2  0
  5  6  1  0
  6  7  2  0
  7  8  1  0
  7  9  1  0
  9 10  2  0
 10 11  1  0
  2 12  2  0
 12 13  1  0
 13 14  2  0
 14 15  1  0
 15 16  1  0
 15 17  1  0
 17 18  2  0
 18 19  1  0
 19 20  2  3
 20 21  1  0
 21 22  1  0
 22 23  1  0
 23 24  1  0
 23 25  1  0
 19  1  1  0
 10  4  1  0
 17 12  1  0
  1 26  1  0
  3 27  1  0
  5 28  1  0
  6 29  1  0
  8 30  1  0
  8 31  1  0
  8 32  1  0
  9 33  1  0
 13 34  1  0
 16 35  1  0
 16 36  1  0
 16 37  1  0
 21 38  1  0
 21 39  1  0
 22 40  1  0
 22 41  1  0
 23 42  1  0
 24 43  1  0
 24 44  1  0
 24 45  1  0
 25 46  1  0
 25 47  1  0
 25 48  1  0
M  CHG  1  23   1
M  END
>  <ScrubInfo>  (2) 
{"isomerGroup": 0, "isomerId": 1, "confId": 0, "nr_conformers:": 1, "nr_isomers:": 9}

$$$$
_i2
     RDKit          3D

 48 50  0  0  0  0  0  0  0  0999 V2000
    0.2845    0.0873    1.5968 N   0  0  0  0  0  0  0  0  0  0  0  0
    1.3992    0.6290    1.0068 C   0  0  0  0  0  0  0  0  0  0  0  0
    2.4926    0.6626    1.8368 N   0  0  0  0  0  0  0  0  0  0  0  0
    3.6824    1.4378    1.4867 C   0  0  0  0  0  0  0  0  0  0  0  0
    4.9340    0.5527    1.3231 C   0  0  0  0  0  0  0  0  0  0  0  0
    4.9404   -0.3898    0.1310 N   0  0  0  0  0  4  0  0  0  0  0  0
    4.8354    0.3013   -1.1978 C   0  0  0  0  0  0  0  0  0  0  0  0
    3.9842   -1.5447    0.2367 C   0  0  0  0  0  0  0  0  0  0  0  0
    1.4459    1.0184   -0.2417 N   0  0  0  0  0  0  0  0  0  0  0  0
    0.2393    0.8677   -0.8620 C   0  0  0  0  0  0  0  0  0  0  0  0
   -0.9378    0.3442   -0.3450 C   0  0  0  0  0  0  0  0  0  0  0  0
   -1.8462    0.3987   -1.4161 C   0  0  0  0  0  0  0  0  0  0  0  0
   -1.3037    0.9192   -2.5231 N   0  0  0  0  0  0  0  0  0  0  0  0
   -0.0467    1.2318   -2.1493 N   0  0  0  0  0  0  0  0  0  0  0  0
    0.8233    1.8784   -3.0988 C   0  0  0  0  0  0  0  0  0  0  0  0
   -0.9567   -0.1025    1.0319 C   0  0  0  0  0  0  0  0  0  0  0  0
   -1.9302   -0.6163    1.7172 N   0  0  0  0  0  0  0  0  0  0  0  0
   -3.2172   -0.7670    1.1809 C   0  0  0  0  0  0  0  0  0  0  0  0
   -3.5737   -2.0005    0.6255 C   0  0  0  0  0  0  0  0  0  0  0  0
   -4.8534   -2.2066    0.1026 C   0  0  0  0  0  0  0  0  0  0  0  0
   -5.8114   -1.1881    0.1510 C   0  0  0  0  0  0  0  0  0  0  0  0
   -7.1755   -1.3977   -0.4391 C   0  0  0  0  0  0  0  0  0  0  0  0
   -5.4663    0.0461    0.7157 C   0  0  0  0  0  0  0  0  0  0  0  0
   -4.1849    0.2498    1.2387 C   0  0  0  0  0  0  0  0  0  0  0  0
   -3.7933    1.9419    2.0100 Br  0  0  0  0  0  0  0  0  0  0  0  0
    0.3198   -0.2080    2.5593 H   0  0  0  0  0  0  0  0  0  0  0  0
    2.2467    0.7601    2.8194 H   0  0  0  0  0  0  0  0  0  0  0  0
    3.5325    2.0594    0.5977 H   0  0  0  0  0  0  0  0  0  0  0  0
    3.8727    2.1387    2.3086 H   0  0  0  0  0  0  0  0  0  0  0  0
    5.0904   -0.0704    2.2113 H   0  0  0  0  0  0  0  0  0  0  0  0
    5.8188    1.1885    1.2038 H   0  0  0  0  0  0  0  0  0  0  0  0
    5.8732   -0.8206    0.1448 H   0  0  0  0  0  0  0  0  0  0  0  0
    5.5911    1.0904   -1.2304 H   0  0  0  0  0  0  0  0  0  0  0  0
    3.8335    0.7142   -1.3155 H   0  0  0  0  0  0  0  0  0  0  0  0
    5.0384   -0.4386   -1.9769 H   0  0  0  0  0  0  0  0  0  0  0  0
    4.3337   -2.3202   -0.4513 H   0  0  0  0  0  0  0  0  0  0  0  0
    4.0076   -1.9262    1.2604 H   0  0  0  0  0  0  0  0  0  0  0  0
    2.9849   -1.2250   -0.0533 H   0  0  0  0  0  0  0  0  0  0  0  0
   -2.8800    0.0842   -1.4618 H   0  0  0  0  0  0  0  0  0  0  0  0
    0.3176    2.7682   -3.4827 H   0  0  0  0  0  0  0  0  0  0  0  0
    1.0282    1.1751   -3.9098 H   0  0  0  0  0  0  0  0  0  0  0  0
    1.7573    2.1690   -2.6128 H   0  0  0  0  0  0  0  0  0  0  0  0
   -2.8489   -2.8098    0.5984 H   0  0  0  0  0  0  0  0  0  0  0  0
   -5.1002   -3.1719   -0.3356 H   0  0  0  0  0  0  0  0  0  0  0  0
   -7.4729   -2.4495   -0.3726 H   0  0  0  0  0  0  0  0  0  0  0  0
   -7.1781   -1.0949   -1.4906 H   0  0  0  0  0  0  0  0  0  0  0  0
   -7.9280   -0.8131    0.1005 H   0  0  0  0  0  0  0  0  0  0  0  0
   -6.2023    0.8468    0.7522 H   0  0  0  0  0  0  0  0  0  0  0  0
  1  2  1  0
  2  3  1  0
  3  4  1  0
  4  5  1  0
  5  6  1  0
  6  7  1  0
  6  8  1  0
  2  9  2  0
  9 10  1  0
 10 11  2  0
 11 12  1  0
 12 13  2  0
 13 14  1  0
 14 15  1  0
 11 16  1  0
 16 17  2  3
 17 18  1  0
 18 19  2  0
 19 20  1  0
 20 21  2  0
 21 22  1  0
 21 23  1  0
 23 24  2  0
 24 25  1  0
 16  1  1  0
 24 18  1  0
 14 10  1  0
  1 26  1  0
  3 27  1  0
  4 28  1  0
  4 29  1  0
  5 30  1  0
  5 31  1  0
  6 32  1  0
  7 33  1  0
  7 34  1  0
  7 35  1  0
  8 36  1  0
  8 37  1  0
  8 38  1  0
 12 39  1  0
 15 40  1  0
 15 41  1  0
 15 42  1  0
 19 43  1  0
 20 44  1  0
 22 45  1  0
 22 46  1  0
 22 47  1  0
 23 48  1  0
M  CHG  1   6   1
M  END
>  <ScrubInfo>  (3) 
{"isomerGroup": 0, "isomerId": 2, "confId": 0, "nr_conformers:": 1, "nr_isomers:": 9}

$$$$
_i3
     RDKit          3D

 48 50  0  0  0  0  0  0  0  0999 V2000
    1.6372   -1.6585   -1.6559 N   0  0  0  0  0  0  0  0  0  0  0  0
    1.0864   -0.5551   -1.0335 C   0  0  0  0  0  0  0  0  0  0  0  0
    1.6229    0.6026   -0.8891 N   0  0  0  0  0  0  0  0  0  0  0  0
    2.9782    0.8695   -1.3595 C   0  0  0  0  0  0  0  0  0  0  0  0
    3.2884    2.3280   -0.9649 C   0  0  0  0  0  0  0  0  0  0  0  0
    2.5467    2.6402    0.3262 N   0  0  0  0  0  4  0  0  0  0  0  0
    3.2408    2.1567    1.5573 C   0  0  0  0  0  0  0  0  0  0  0  0
    2.0878    4.0548    0.4277 C   0  0  0  0  0  0  0  0  0  0  0  0
   -0.1612   -0.5979   -0.4461 N   0  0  0  0  0  0  0  0  0  0  0  0
   -0.8361   -1.7116   -0.4113 C   0  0  0  0  0  0  0  0  0  0  0  0
   -2.0751   -1.9166    0.1509 N   0  0  0  0  0  0  0  0  0  0  0  0
   -2.8435   -0.8804    0.7295 C   0  0  0  0  0  0  0  0  0  0  0  0
   -4.0668   -0.5484    0.1233 C   0  0  0  0  0  0  0  0  0  0  0  0
   -4.8522    0.5038    0.6039 C   0  0  0  0  0  0  0  0  0  0  0  0
   -4.4273    1.2630    1.6964 C   0  0  0  0  0  0  0  0  0  0  0  0
   -5.2901    2.3639    2.2399 C   0  0  0  0  0  0  0  0  0  0  0  0
   -3.2167    0.9364    2.3174 C   0  0  0  0  0  0  0  0  0  0  0  0
   -2.4264   -0.1167    1.8354 C   0  0  0  0  0  0  0  0  0  0  0  0
   -0.8494   -0.5243    2.8240 Br  0  0  0  0  0  0  0  0  0  0  0  0
   -0.2832   -2.9013   -1.0229 C   0  0  0  0  0  0  0  0  0  0  0  0
   -0.6460   -4.2477   -1.1825 C   0  0  0  0  0  0  0  0  0  0  0  0
    0.2733   -4.9426   -1.8669 N   0  0  0  0  0  0  0  0  0  0  0  0
    1.2427   -4.0367   -2.1336 N   0  0  0  0  0  0  0  0  0  0  0  0
    2.4093   -4.4602   -2.8664 C   0  0  0  0  0  0  0  0  0  0  0  0
    0.9402   -2.8094   -1.6314 C   0  0  0  0  0  0  0  0  0  0  0  0
    2.5435   -1.5715   -2.0900 H   0  0  0  0  0  0  0  0  0  0  0  0
    3.0695    0.7490   -2.4440 H   0  0  0  0  0  0  0  0  0  0  0  0
    3.6921    0.2003   -0.8662 H   0  0  0  0  0  0  0  0  0  0  0  0
    4.3558    2.5233   -0.8246 H   0  0  0  0  0  0  0  0  0  0  0  0
    2.8908    3.0014   -1.7321 H   0  0  0  0  0  0  0  0  0  0  0  0
    1.6932    2.0453    0.2280 H   0  0  0  0  0  0  0  0  0  0  0  0
    4.1587    2.7359    1.6873 H   0  0  0  0  0  0  0  0  0  0  0  0
    2.5672    2.2984    2.4066 H   0  0  0  0  0  0  0  0  0  0  0  0
    3.4660    1.0940    1.4390 H   0  0  0  0  0  0  0  0  0  0  0  0
    2.9675    4.7027    0.4634 H   0  0  0  0  0  0  0  0  0  0  0  0
    1.4893    4.1578    1.3367 H   0  0  0  0  0  0  0  0  0  0  0  0
    1.4706    4.2804   -0.4460 H   0  0  0  0  0  0  0  0  0  0  0  0
   -2.6476   -2.6277   -0.2875 H   0  0  0  0  0  0  0  0  0  0  0  0
   -4.4212   -1.1021   -0.7436 H   0  0  0  0  0  0  0  0  0  0  0  0
   -5.7991    0.7269    0.1151 H   0  0  0  0  0  0  0  0  0  0  0  0
   -5.9699    1.9660    2.9996 H   0  0  0  0  0  0  0  0  0  0  0  0
   -4.6782    3.1529    2.6897 H   0  0  0  0  0  0  0  0  0  0  0  0
   -5.8813    2.8266    1.4427 H   0  0  0  0  0  0  0  0  0  0  0  0
   -2.8978    1.4977    3.1932 H   0  0  0  0  0  0  0  0  0  0  0  0
   -1.5310   -4.7667   -0.8372 H   0  0  0  0  0  0  0  0  0  0  0  0
    2.0836   -4.8831   -3.8201 H   0  0  0  0  0  0  0  0  0  0  0  0
    3.0651   -3.6060   -3.0466 H   0  0  0  0  0  0  0  0  0  0  0  0
    2.9334   -5.2131   -2.2724 H   0  0  0  0  0  0  0  0  0  0  0  0
  1  2  1  0
  2  3  2  3
  3  4  1  0
  4  5  1  0
  5  6  1  0
  6  7  1  0
  6  8  1  0
  2  9  1  0
  9 10  2  0
 10 11  1  0
 11 12  1  0
 12 13  2  0
 13 14  1  0
 14 15  2  0
 15 16  1  0
 15 17  1  0
 17 18  2  0
 18 19  1  0
 10 20  1  0
 20 21  1  0
 21 22  2  0
 22 23  1  0
 23 24  1  0
 23 25  1  0
 25  1  1  0
 18 12  1  0
 25 20  2  0
  1 26  1  0
  4 27  1  0
  4 28  1  0
  5 29  1  0
  5 30  1  0
  6 31  1  0
  7 32  1  0
  7 33  1  0
  7 34  1  0
  8 35  1  0
  8 36  1  0
  8 37  1  0
 11 38  1  0
 13 39  1  0
 14 40  1  0
 16 41  1  0
 16 42  1  0
 16 43  1  0
 17 44  1  0
 21 45  1  0
 24 46  1  0
 24 47  1  0
 24 48  1  0
M  CHG  1   6   1
M  END
>  <ScrubInfo>  (4) 
{"isomerGroup": 0, "isomerId": 3, "confId": 0, "nr_conformers:": 1, "nr_isomers:": 9}

$$$$
_i4
     RDKit          3D

 48 50  0  0  0  0  0  0  0  0999 V2000
   -0.4128    2.5516   -2.3731 N   0  0  0  0  0  0  0  0  0  0  0  0
   -0.4789    1.3214   -1.7577 C   0  0  0  0  0  0  0  0  0  0  0  0
   -0.9933    0.3544   -2.5844 N   0  0  0  0  0  0  0  0  0  0  0  0
   -1.3007   -0.9738   -2.0636 C   0  0  0  0  0  0  0  0  0  0  0  0
   -0.0191   -1.7603   -1.7125 C   0  0  0  0  0  0  0  0  0  0  0  0
   -0.2819   -3.1100   -1.0627 N   0  0  0  0  0  4  0  0  0  0  0  0
   -0.8916   -4.1264   -1.9782 C   0  0  0  0  0  0  0  0  0  0  0  0
   -0.9994   -3.0051    0.2542 C   0  0  0  0  0  0  0  0  0  0  0  0
   -0.1005    1.0581   -0.5355 N   0  0  0  0  0  0  0  0  0  0  0  0
    0.4286    2.0860    0.2407 C   0  0  0  0  0  0  0  0  0  0  0  0
    0.8480    1.9401    1.4541 N   0  0  0  0  0  0  0  0  0  0  0  0
    0.7983    0.6787    2.0663 C   0  0  0  0  0  0  0  0  0  0  0  0
   -0.2640    0.4027    2.9344 C   0  0  0  0  0  0  0  0  0  0  0  0
   -0.3176   -0.7972    3.6509 C   0  0  0  0  0  0  0  0  0  0  0  0
    0.7090   -1.7398    3.5309 C   0  0  0  0  0  0  0  0  0  0  0  0
    0.6611   -3.0200    4.3127 C   0  0  0  0  0  0  0  0  0  0  0  0
    1.7707   -1.4790    2.6551 C   0  0  0  0  0  0  0  0  0  0  0  0
    1.8175   -0.2777    1.9345 C   0  0  0  0  0  0  0  0  0  0  0  0
    3.3045    0.0050    0.7861 Br  0  0  0  0  0  0  0  0  0  0  0  0
    0.5192    3.3879   -0.3637 C   0  0  0  0  0  0  0  0  0  0  0  0
    0.9827    4.6490    0.0322 C   0  0  0  0  0  0  0  0  0  0  0  0
    0.8618    5.5603   -0.9460 N   0  0  0  0  0  0  0  0  0  0  0  0
    0.3192    4.8678   -1.9761 N   0  0  0  0  0  0  0  0  0  0  0  0
    0.0483    5.5561   -3.2128 C   0  0  0  0  0  0  0  0  0  0  0  0
    0.0987    3.5656   -1.6521 C   0  0  0  0  0  0  0  0  0  0  0  0
   -0.5686    2.6138   -3.3708 H   0  0  0  0  0  0  0  0  0  0  0  0
   -1.7183    0.7125   -3.2004 H   0  0  0  0  0  0  0  0  0  0  0  0
   -1.9639   -0.8771   -1.1975 H   0  0  0  0  0  0  0  0  0  0  0  0
   -1.8581   -1.5188   -2.8332 H   0  0  0  0  0  0  0  0  0  0  0  0
    0.5710   -1.9557   -2.6158 H   0  0  0  0  0  0  0  0  0  0  0  0
    0.6317   -1.2246   -1.0179 H   0  0  0  0  0  0  0  0  0  0  0  0
    0.6571   -3.4618   -0.8299 H   0  0  0  0  0  0  0  0  0  0  0  0
   -1.9135   -3.8213   -2.2159 H   0  0  0  0  0  0  0  0  0  0  0  0
   -0.8872   -5.0901   -1.4619 H   0  0  0  0  0  0  0  0  0  0  0  0
   -0.2784   -4.1846   -2.8810 H   0  0  0  0  0  0  0  0  0  0  0  0
   -0.8837   -3.9599    0.7739 H   0  0  0  0  0  0  0  0  0  0  0  0
   -0.5386   -2.2035    0.8310 H   0  0  0  0  0  0  0  0  0  0  0  0
   -2.0555   -2.7962    0.0673 H   0  0  0  0  0  0  0  0  0  0  0  0
   -1.0430    1.1489    3.0768 H   0  0  0  0  0  0  0  0  0  0  0  0
   -1.1484   -0.9679    4.3337 H   0  0  0  0  0  0  0  0  0  0  0  0
    0.1319   -3.7872    3.7391 H   0  0  0  0  0  0  0  0  0  0  0  0
    1.6709   -3.3789    4.5374 H   0  0  0  0  0  0  0  0  0  0  0  0
    0.1477   -2.8750    5.2691 H   0  0  0  0  0  0  0  0  0  0  0  0
    2.5827   -2.1976    2.5631 H   0  0  0  0  0  0  0  0  0  0  0  0
    1.4068    4.9460    0.9835 H   0  0  0  0  0  0  0  0  0  0  0  0
   -0.6036    6.4071   -2.9996 H   0  0  0  0  0  0  0  0  0  0  0  0
   -0.4454    4.8796   -3.9137 H   0  0  0  0  0  0  0  0  0  0  0  0
    0.9986    5.8970   -3.6310 H   0  0  0  0  0  0  0  0  0  0  0  0
  1  2  1  0
  2  3  1  0
  3  4  1  0
  4  5  1  0
  5  6  1  0
  6  7  1  0
  6  8  1  0
  2  9  2  0
  9 10  1  0
 10 11  2  3
 11 12  1  0
 12 13  2  0
 13 14  1  0
 14 15  2  0
 15 16  1  0
 15 17  1  0
 17 18  2  0
 18 19  1  0
 10 20  1  0
 20 21  1  0
 21 22  2  0
 22 23  1  0
 23 24  1  0
 23 25  1  0
 25  1  1  0
 18 12  1  0
 25 20  2  0
  1 26  1  0
  3 27  1  0
  4 28  1  0
  4 29  1  0
  5 30  1  0
  5 31  1  0
  6 32  1  0
  7 33  1  0
  7 34  1  0
  7 35  1  0
  8 36  1  0
  8 37  1  0
  8 38  1  0
 13 39  1  0
 14 40  1  0
 16 41  1  0
 16 42  1  0
 16 43  1  0
 17 44  1  0
 21 45  1  0
 24 46  1  0
 24 47  1  0
 24 48  1  0
M  CHG  1   6   1
M  END
>  <ScrubInfo>  (5) 
{"isomerGroup": 0, "isomerId": 4, "confId": 0, "nr_conformers:": 1, "nr_isomers:": 9}

$$$$
_i5
     RDKit          3D

 48 50  0  0  0  0  0  0  0  0999 V2000
   -0.0064    4.6326    0.8853 N   0  0  0  0  0  0  0  0  0  0  0  0
   -1.0951    3.8856    0.4484 C   0  0  0  0  0  0  0  0  0  0  0  0
   -0.8423    2.5699    0.4215 C   0  0  0  0  0  0  0  0  0  0  0  0
   -1.5411    1.3670    0.0347 C   0  0  0  0  0  0  0  0  0  0  0  0
   -2.7713    1.3754   -0.3673 N   0  0  0  0  0  0  0  0  0  0  0  0
   -3.3846    0.1515   -0.6954 C   0  0  0  0  0  0  0  0  0  0  0  0
   -3.4987   -0.1914   -2.0473 C   0  0  0  0  0  0  0  0  0  0  0  0
   -4.1243   -1.3788   -2.4384 C   0  0  0  0  0  0  0  0  0  0  0  0
   -4.6704   -2.2396   -1.4809 C   0  0  0  0  0  0  0  0  0  0  0  0
   -5.3249   -3.5243   -1.8964 C   0  0  0  0  0  0  0  0  0  0  0  0
   -4.5624   -1.9049   -0.1253 C   0  0  0  0  0  0  0  0  0  0  0  0
   -3.9354   -0.7147    0.2635 C   0  0  0  0  0  0  0  0  0  0  0  0
   -3.8641   -0.3172    2.1215 Br  0  0  0  0  0  0  0  0  0  0  0  0
   -0.7879    0.2253    0.1314 N   0  0  0  0  0  0  0  0  0  0  0  0
    0.4496    0.2385    0.5224 C   0  0  0  0  0  0  0  0  0  0  0  0
    1.0481   -0.9898    0.6115 N   0  0  0  0  0  0  0  0  0  0  0  0
    2.0670   -1.2668    1.6094 C   0  0  0  0  0  0  0  0  0  0  0  0
    3.4560   -0.6982    1.2526 C   0  0  0  0  0  0  0  0  0  0  0  0
    4.0168   -1.1394   -0.0970 N   0  0  0  0  0  4  0  0  0  0  0  0
    3.3635   -0.4710   -1.2774 C   0  0  0  0  0  0  0  0  0  0  0  0
    4.1056   -2.6247   -0.2719 C   0  0  0  0  0  0  0  0  0  0  0  0
    1.1887    1.3484    0.8407 N   0  0  0  0  0  0  0  0  0  0  0  0
    0.5693    2.4806    0.8250 C   0  0  0  0  0  0  0  0  0  0  0  0
    1.0362    3.7536    1.1208 N   0  0  0  0  0  0  0  0  0  0  0  0
    2.4124    4.1770    1.0966 C   0  0  0  0  0  0  0  0  0  0  0  0
    0.1702    5.4664    0.3198 H   0  0  0  0  0  0  0  0  0  0  0  0
   -2.0058    4.3862    0.1478 H   0  0  0  0  0  0  0  0  0  0  0  0
   -3.1002    0.4795   -2.8037 H   0  0  0  0  0  0  0  0  0  0  0  0
   -4.1947   -1.6177   -3.4976 H   0  0  0  0  0  0  0  0  0  0  0  0
   -4.5850   -4.3301   -1.9196 H   0  0  0  0  0  0  0  0  0  0  0  0
   -6.1253   -3.7973   -1.2007 H   0  0  0  0  0  0  0  0  0  0  0  0
   -5.7766   -3.4299   -2.8896 H   0  0  0  0  0  0  0  0  0  0  0  0
   -4.9819   -2.5679    0.6283 H   0  0  0  0  0  0  0  0  0  0  0  0
    0.3122   -1.6948    0.5701 H   0  0  0  0  0  0  0  0  0  0  0  0
    2.1451   -2.3533    1.7279 H   0  0  0  0  0  0  0  0  0  0  0  0
    1.7528   -0.8766    2.5851 H   0  0  0  0  0  0  0  0  0  0  0  0
    4.1851   -1.0334    1.9996 H   0  0  0  0  0  0  0  0  0  0  0  0
    3.4767    0.3953    1.2545 H   0  0  0  0  0  0  0  0  0  0  0  0
    4.9833   -0.7917   -0.1003 H   0  0  0  0  0  0  0  0  0  0  0  0
    3.2554    0.5942   -1.0610 H   0  0  0  0  0  0  0  0  0  0  0  0
    2.4043   -0.9465   -1.4869 H   0  0  0  0  0  0  0  0  0  0  0  0
    4.0314   -0.6015   -2.1340 H   0  0  0  0  0  0  0  0  0  0  0  0
    4.6185   -3.0400    0.5994 H   0  0  0  0  0  0  0  0  0  0  0  0
    4.6885   -2.8223   -1.1756 H   0  0  0  0  0  0  0  0  0  0  0  0
    3.0977   -3.0353   -0.3687 H   0  0  0  0  0  0  0  0  0  0  0  0
    2.5306    5.1381    1.6072 H   0  0  0  0  0  0  0  0  0  0  0  0
    3.0514    3.4472    1.6039 H   0  0  0  0  0  0  0  0  0  0  0  0
    2.7620    4.2866    0.0651 H   0  0  0  0  0  0  0  0  0  0  0  0
  1  2  1  0
  2  3  2  0
  3  4  1  0
  4  5  2  3
  5  6  1  0
  6  7  2  0
  7  8  1  0
  8  9  2  0
  9 10  1  0
  9 11  1  0
 11 12  2  0
 12 13  1  0
  4 14  1  0
 14 15  2  0
 15 16  1  0
 16 17  1  0
 17 18  1  0
 18 19  1  0
 19 20  1  0
 19 21  1  0
 15 22  1  0
 22 23  2  0
 23 24  1  0
 24 25  1  0
 24  1  1  0
 23  3  1  0
 12  6  1  0
  1 26  1  0
  2 27  1  0
  7 28  1  0
  8 29  1  0
 10 30  1  0
 10 31  1  0
 10 32  1  0
 11 33  1  0
 16 34  1  0
 17 35  1  0
 17 36  1  0
 18 37  1  0
 18 38  1  0
 19 39  1  0
 20 40  1  0
 20 41  1  0
 20 42  1  0
 21 43  1  0
 21 44  1  0
 21 45  1  0
 25 46  1  0
 25 47  1  0
 25 48  1  0
M  CHG  1  19   1
M  END
>  <ScrubInfo>  (6) 
{"isomerGroup": 0, "isomerId": 5, "confId": 0, "nr_conformers:": 1, "nr_isomers:": 9}

$$$$
_i6
     RDKit          3D

 48 50  0  0  0  0  0  0  0  0999 V2000
    0.1071   -5.0094    0.5964 N   0  0  0  0  0  0  0  0  0  0  0  0
    1.0833   -4.0206    0.5487 C   0  0  0  0  0  0  0  0  0  0  0  0
    0.5759   -2.7966    0.3416 C   0  0  0  0  0  0  0  0  0  0  0  0
    1.0645   -1.4174    0.2323 C   0  0  0  0  0  0  0  0  0  0  0  0
    2.4243   -1.1879    0.2278 N   0  0  0  0  0  0  0  0  0  0  0  0
    3.1556    0.0203    0.2251 C   0  0  0  0  0  0  0  0  0  0  0  0
    2.5778    1.2726    0.4597 C   0  0  0  0  0  0  0  0  0  0  0  0
    3.3448    2.4455    0.4387 C   0  0  0  0  0  0  0  0  0  0  0  0
    4.7182    2.3979    0.1882 C   0  0  0  0  0  0  0  0  0  0  0  0
    5.5304    3.6582    0.1357 C   0  0  0  0  0  0  0  0  0  0  0  0
    5.3128    1.1598   -0.0646 C   0  0  0  0  0  0  0  0  0  0  0  0
    4.5421   -0.0081   -0.0399 C   0  0  0  0  0  0  0  0  0  0  0  0
    5.4324   -1.6583   -0.3811 Br  0  0  0  0  0  0  0  0  0  0  0  0
    0.1621   -0.4813    0.1313 N   0  0  0  0  0  0  0  0  0  0  0  0
   -1.1683   -0.8116    0.1325 C   0  0  0  0  0  0  0  0  0  0  0  0
   -1.9398    0.2122   -0.0105 N   0  0  0  0  0  0  0  0  0  0  0  0
   -3.3888   -0.0398   -0.0445 C   0  0  0  0  0  0  0  0  0  0  0  0
   -4.0732    1.3255   -0.2105 C   0  0  0  0  0  0  0  0  0  0  0  0
   -3.2029    2.1905   -1.1086 N   0  0  0  0  0  4  0  0  0  0  0  0
   -3.3663    1.8949   -2.5644 C   0  0  0  0  0  0  0  0  0  0  0  0
   -3.2878    3.6450   -0.7933 C   0  0  0  0  0  0  0  0  0  0  0  0
   -1.7241   -2.0597    0.2462 N   0  0  0  0  0  0  0  0  0  0  0  0
   -0.8857   -3.0347    0.3300 C   0  0  0  0  0  0  0  0  0  0  0  0
   -1.1254   -4.3967    0.4482 N   0  0  0  0  0  0  0  0  0  0  0  0
   -2.3288   -4.9675    1.0076 C   0  0  0  0  0  0  0  0  0  0  0  0
    0.2266   -5.6764    1.3633 H   0  0  0  0  0  0  0  0  0  0  0  0
    2.1148   -4.3030    0.7052 H   0  0  0  0  0  0  0  0  0  0  0  0
    3.0350   -1.9966    0.1575 H   0  0  0  0  0  0  0  0  0  0  0  0
    1.5205    1.3696    0.6835 H   0  0  0  0  0  0  0  0  0  0  0  0
    2.8569    3.3997    0.6285 H   0  0  0  0  0  0  0  0  0  0  0  0
    6.5603    3.4726    0.4581 H   0  0  0  0  0  0  0  0  0  0  0  0
    5.5440    4.0519   -0.8853 H   0  0  0  0  0  0  0  0  0  0  0  0
    5.1137    4.4198    0.8032 H   0  0  0  0  0  0  0  0  0  0  0  0
    6.3784    1.1064   -0.2782 H   0  0  0  0  0  0  0  0  0  0  0  0
   -3.7459   -0.5141    0.8766 H   0  0  0  0  0  0  0  0  0  0  0  0
   -3.6469   -0.6769   -0.8987 H   0  0  0  0  0  0  0  0  0  0  0  0
   -4.1227    1.8261    0.7628 H   0  0  0  0  0  0  0  0  0  0  0  0
   -5.0781    1.2594   -0.6386 H   0  0  0  0  0  0  0  0  0  0  0  0
   -2.2470    1.8660   -0.8491 H   0  0  0  0  0  0  0  0  0  0  0  0
   -3.2003    0.8276   -2.7282 H   0  0  0  0  0  0  0  0  0  0  0  0
   -4.3772    2.1823   -2.8654 H   0  0  0  0  0  0  0  0  0  0  0  0
   -2.6183    2.4718   -3.1148 H   0  0  0  0  0  0  0  0  0  0  0  0
   -4.3079    3.9843   -0.9915 H   0  0  0  0  0  0  0  0  0  0  0  0
   -3.0260    3.7855    0.2588 H   0  0  0  0  0  0  0  0  0  0  0  0
   -2.5700    4.1756   -1.4243 H   0  0  0  0  0  0  0  0  0  0  0  0
   -2.3613   -4.8106    2.0904 H   0  0  0  0  0  0  0  0  0  0  0  0
   -3.2177   -4.5102    0.5617 H   0  0  0  0  0  0  0  0  0  0  0  0
   -2.3711   -6.0436    0.8108 H   0  0  0  0  0  0  0  0  0  0  0  0
  1  2  1  0
  2  3  2  0
  3  4  1  0
  4  5  1  0
  5  6  1  0
  6  7  2  0
  7  8  1  0
  8  9  2  0
  9 10  1  0
  9 11  1  0
 11 12  2  0
 12 13  1  0
  4 14  2  0
 14 15  1  0
 15 16  2  3
 16 17  1  0
 17 18  1  0
 18 19  1  0
 19 20  1  0
 19 21  1  0
 15 22  1  0
 22 23  2  0
 23 24  1  0
 24 25  1  0
 24  1  1  0
 23  3  1  0
 12  6  1  0
  1 26  1  0
  2 27  1  0
  5 28  1  0
  7 29  1  0
  8 30  1  0
 10 31  1  0
 10 32  1  0
 10 33  1  0
 11 34  1  0
 17 35  1  0
 17 36  1  0
 18 37  1  0
 18 38  1  0
 19 39  1  0
 20 40  1  0
 20 41  1  0
 20 42  1  0
 21 43  1  0
 21 44  1  0
 21 45  1  0
 25 46  1  0
 25 47  1  0
 25 48  1  0
M  CHG  1  19   1
M  END
>  <ScrubInfo>  (7) 
{"isomerGroup": 0, "isomerId": 6, "confId": 0, "nr_conformers:": 1, "nr_isomers:": 9}

$$$$
_i7
     RDKit          3D

 48 50  0  0  0  0  0  0  0  0999 V2000
   -0.2861    5.1356   -0.4739 N   0  0  0  0  0  0  0  0  0  0  0  0
   -1.2951    4.1866   -0.5761 C   0  0  0  0  0  0  0  0  0  0  0  0
   -0.8484    2.9377   -0.4011 C   0  0  0  0  0  0  0  0  0  0  0  0
   -1.3981    1.5828   -0.3582 C   0  0  0  0  0  0  0  0  0  0  0  0
   -2.6671    1.4022   -0.5658 N   0  0  0  0  0  0  0  0  0  0  0  0
   -3.2039    0.1040   -0.5147 C   0  0  0  0  0  0  0  0  0  0  0  0
   -3.4450   -0.5574   -1.7230 C   0  0  0  0  0  0  0  0  0  0  0  0
   -3.9854   -1.8461   -1.7406 C   0  0  0  0  0  0  0  0  0  0  0  0
   -4.2967   -2.5000   -0.5440 C   0  0  0  0  0  0  0  0  0  0  0  0
   -4.9295   -3.8611   -0.5642 C   0  0  0  0  0  0  0  0  0  0  0  0
   -4.0858   -1.8341    0.6697 C   0  0  0  0  0  0  0  0  0  0  0  0
   -3.5449   -0.5434    0.6842 C   0  0  0  0  0  0  0  0  0  0  0  0
   -3.2728    0.2855    2.3717 Br  0  0  0  0  0  0  0  0  0  0  0  0
   -0.4408    0.6329   -0.0830 N   0  0  0  0  0  0  0  0  0  0  0  0
    0.8905    0.8716    0.1569 C   0  0  0  0  0  0  0  0  0  0  0  0
    1.7809    0.0012    0.4764 N   0  0  0  0  0  0  0  0  0  0  0  0
    1.4412   -1.4022    0.6307 C   0  0  0  0  0  0  0  0  0  0  0  0
    2.6382   -2.1529    1.2445 C   0  0  0  0  0  0  0  0  0  0  0  0
    3.9307   -2.0599    0.4466 N   0  0  0  0  0  4  0  0  0  0  0  0
    4.5551   -0.6856    0.4484 C   0  0  0  0  0  0  0  0  0  0  0  0
    3.8359   -2.6210   -0.9381 C   0  0  0  0  0  0  0  0  0  0  0  0
    1.4282    2.1373    0.0610 N   0  0  0  0  0  0  0  0  0  0  0  0
    0.6235    3.1183   -0.2106 C   0  0  0  0  0  0  0  0  0  0  0  0
    0.9333    4.4716   -0.3676 N   0  0  0  0  0  0  0  0  0  0  0  0
    1.9998    5.0934    0.3948 C   0  0  0  0  0  0  0  0  0  0  0  0
   -0.3465    5.8796   -1.1739 H   0  0  0  0  0  0  0  0  0  0  0  0
   -2.3101    4.5011   -0.7768 H   0  0  0  0  0  0  0  0  0  0  0  0
   -3.2283   -0.0536   -2.6625 H   0  0  0  0  0  0  0  0  0  0  0  0
   -4.1813   -2.3267   -2.6978 H   0  0  0  0  0  0  0  0  0  0  0  0
   -4.5929   -4.4350   -1.4340 H   0  0  0  0  0  0  0  0  0  0  0  0
   -4.6532   -4.4324    0.3283 H   0  0  0  0  0  0  0  0  0  0  0  0
   -6.0190   -3.7668   -0.6018 H   0  0  0  0  0  0  0  0  0  0  0  0
   -4.3618   -2.3189    1.6044 H   0  0  0  0  0  0  0  0  0  0  0  0
   -0.7718   -0.3130   -0.0073 H   0  0  0  0  0  0  0  0  0  0  0  0
    1.1756   -1.8419   -0.3367 H   0  0  0  0  0  0  0  0  0  0  0  0
    0.5860   -1.5253    1.3058 H   0  0  0  0  0  0  0  0  0  0  0  0
    2.4083   -3.2203    1.3350 H   0  0  0  0  0  0  0  0  0  0  0  0
    2.8665   -1.7706    2.2460 H   0  0  0  0  0  0  0  0  0  0  0  0
    4.5958   -2.6523    0.9570 H   0  0  0  0  0  0  0  0  0  0  0  0
    4.0816   -0.0640   -0.3140 H   0  0  0  0  0  0  0  0  0  0  0  0
    4.4604   -0.2570    1.4491 H   0  0  0  0  0  0  0  0  0  0  0  0
    5.6139   -0.8142    0.2049 H   0  0  0  0  0  0  0  0  0  0  0  0
    4.8468   -2.6668   -1.3523 H   0  0  0  0  0  0  0  0  0  0  0  0
    3.2014   -1.9718   -1.5464 H   0  0  0  0  0  0  0  0  0  0  0  0
    3.4167   -3.6281   -0.8697 H   0  0  0  0  0  0  0  0  0  0  0  0
    1.7622    5.0977    1.4637 H   0  0  0  0  0  0  0  0  0  0  0  0
    2.9421    4.5560    0.2472 H   0  0  0  0  0  0  0  0  0  0  0  0
    2.1499    6.1271    0.0669 H   0  0  0  0  0  0  0  0  0  0  0  0
  1  2  1  0
  2  3  2  0
  3  4  1  0
  4  5  2  3
  5  6  1  0
  6  7  2  0
  7  8  1  0
  8  9  2  0
  9 10  1  0
  9 11  1  0
 11 12  2  0
 12 13  1  0
  4 14  1  0
 14 15  1  0
 15 16  2  3
 16 17  1  0
 17 18  1  0
 18 19  1  0
 19 20  1  0
 19 21  1  0
 15 22  1  0
 22 23  2  0
 23 24  1  0
 24 25  1  0
 24  1  1  0
 23  3  1  0
 12  6  1  0
  1 26  1  0
  2 27  1  0
  7 28  1  0
  8 29  1  0
 10 30  1  0
 10 31  1  0
 10 32  1  0
 11 33  1  0
 14 34  1  0
 17 35  1  0
 17 36  1  0
 18 37  1  0
 18 38  1  0
 19 39  1  0
 20 40  1  0
 20 41  1  0
 20 42  1  0
 21 43  1  0
 21 44  1  0
 21 45  1  0
 25 46  1  0
 25 47  1  0
 25 48  1  0
M  CHG  1  19   1
M  END
>  <ScrubInfo>  (8) 
{"isomerGroup": 0, "isomerId": 7, "confId": 0, "nr_conformers:": 1, "nr_isomers:": 9}

$$$$
_i8
     RDKit          3D

 48 50  0  0  0  0  0  0  0  0999 V2000
    1.3357   -0.8289   -1.1963 N   0  0  0  0  0  0  0  0  0  0  0  0
    1.4766    0.2895   -0.3904 C   0  0  0  0  0  0  0  0  0  0  0  0
    2.5716    0.8799   -0.0279 N   0  0  0  0  0  0  0  0  0  0  0  0
    3.8435    0.3306   -0.5221 C   0  0  0  0  0  0  0  0  0  0  0  0
    4.9725    1.2515   -0.0244 C   0  0  0  0  0  0  0  0  0  0  0  0
    4.6401    1.7105    1.3843 N   0  0  0  0  0  4  0  0  0  0  0  0
    4.9559    0.6953    2.4376 C   0  0  0  0  0  0  0  0  0  0  0  0
    5.1901    3.0626    1.7059 C   0  0  0  0  0  0  0  0  0  0  0  0
    0.2764    0.7894    0.0636 N   0  0  0  0  0  0  0  0  0  0  0  0
   -1.0226    0.3595   -0.1072 C   0  0  0  0  0  0  0  0  0  0  0  0
   -2.0016    0.9880    0.4687 N   0  0  0  0  0  0  0  0  0  0  0  0
   -3.3306    0.5539    0.3642 C   0  0  0  0  0  0  0  0  0  0  0  0
   -4.1475    1.1209   -0.6196 C   0  0  0  0  0  0  0  0  0  0  0  0
   -5.4863    0.7397   -0.7448 C   0  0  0  0  0  0  0  0  0  0  0  0
   -6.0412   -0.1983    0.1326 C   0  0  0  0  0  0  0  0  0  0  0  0
   -7.4697   -0.6322   -0.0221 C   0  0  0  0  0  0  0  0  0  0  0  0
   -5.2333   -0.7624    1.1277 C   0  0  0  0  0  0  0  0  0  0  0  0
   -3.8935   -0.3791    1.2510 C   0  0  0  0  0  0  0  0  0  0  0  0
   -2.8613   -1.1695    2.6374 Br  0  0  0  0  0  0  0  0  0  0  0  0
   -1.0725   -0.8112   -0.9615 C   0  0  0  0  0  0  0  0  0  0  0  0
   -2.0617   -1.6570   -1.4948 C   0  0  0  0  0  0  0  0  0  0  0  0
   -1.5506   -2.6325   -2.2582 N   0  0  0  0  0  0  0  0  0  0  0  0
   -0.2214   -2.4112   -2.2274 N   0  0  0  0  0  0  0  0  0  0  0  0
    0.6477   -3.2975   -2.9607 C   0  0  0  0  0  0  0  0  0  0  0  0
    0.1044   -1.3339   -1.4579 C   0  0  0  0  0  0  0  0  0  0  0  0
    2.1662   -1.2561   -1.5819 H   0  0  0  0  0  0  0  0  0  0  0  0
    3.8694    0.2886   -1.6167 H   0  0  0  0  0  0  0  0  0  0  0  0
    3.9952   -0.6799   -0.1257 H   0  0  0  0  0  0  0  0  0  0  0  0
    5.9544    0.7683   -0.0224 H   0  0  0  0  0  0  0  0  0  0  0  0
    5.0077    2.1486   -0.6523 H   0  0  0  0  0  0  0  0  0  0  0  0
    3.6052    1.7915    1.3494 H   0  0  0  0  0  0  0  0  0  0  0  0
    4.4504   -0.2398    2.1860 H   0  0  0  0  0  0  0  0  0  0  0  0
    6.0397    0.5559    2.4716 H   0  0  0  0  0  0  0  0  0  0  0  0
    4.5813    1.0697    3.3940 H   0  0  0  0  0  0  0  0  0  0  0  0
    6.2816    3.0090    1.6772 H   0  0  0  0  0  0  0  0  0  0  0  0
    4.8380    3.3479    2.7007 H   0  0  0  0  0  0  0  0  0  0  0  0
    4.8126    3.7721    0.9648 H   0  0  0  0  0  0  0  0  0  0  0  0
    0.3352    1.6077    0.6507 H   0  0  0  0  0  0  0  0  0  0  0  0
   -3.7381    1.8657   -1.2974 H   0  0  0  0  0  0  0  0  0  0  0  0
   -6.0954    1.1867   -1.5284 H   0  0  0  0  0  0  0  0  0  0  0  0
   -7.9024   -0.9029    0.9467 H   0  0  0  0  0  0  0  0  0  0  0  0
   -8.0813    0.1764   -0.4361 H   0  0  0  0  0  0  0  0  0  0  0  0
   -7.5272   -1.4969   -0.6902 H   0  0  0  0  0  0  0  0  0  0  0  0
   -5.6539   -1.4979    1.8103 H   0  0  0  0  0  0  0  0  0  0  0  0
   -3.1362   -1.6238   -1.3746 H   0  0  0  0  0  0  0  0  0  0  0  0
    0.1608   -3.5760   -3.8991 H   0  0  0  0  0  0  0  0  0  0  0  0
    1.5895   -2.7895   -3.1792 H   0  0  0  0  0  0  0  0  0  0  0  0
    0.8267   -4.1829   -2.3461 H   0  0  0  0  0  0  0  0  0  0  0  0
  1  2  1  0
  2  3  2  3
  3  4  1  0
  4  5  1  0
  5  6  1  0
  6  7  1  0
  6  8  1  0
  2  9  1  0
  9 10  1  0
 10 11  2  3
 11 12  1  0
 12 13  2  0
 13 14  1  0
 14 15  2  0
 15 16  1  0
 15 17  1  0
 17 18  2  0
 18 19  1  0
 10 20  1  0
 20 21  1  0
 21 22  2  0
 22 23  1  0
 23 24  1  0
 23 25  1  0
 25  1  1  0
 18 12  1  0
 25 20  2  0
  1 26  1  0
  4 27  1  0
  4 28  1  0
  5 29  1  0
  5 30  1  0
  6 31  1  0
  7 32  1  0
  7 33  1  0
  7 34  1  0
  8 35  1  0
  8 36  1  0
  8 37  1  0
  9 38  1  0
 13 39  1  0
 14 40  1  0
 16 41  1  0
 16 42  1  0
 16 43  1  0
 17 44  1  0
 21 45  1  0
 24 46  1  0
 24 47  1  0
 24 48  1  0
M  CHG  1   6   1
M  END
>  <ScrubInfo>  (9) 
{"isomerGroup": 0, "isomerId": 8, "confId": 0, "nr_conformers:": 1, "nr_isomers:": 9}

$$$$
