REMARK SMILES CCCCNc1nc(Nc2ccccc2C)c2cnn(C)c2n1
REMARK SMILES IDX 5 1 4 3 3 4 2 5 1 6 6 7 7 8 23 9 8 10 22 11 17 12 20 13
REMARK SMILES IDX 18 14 19 15 21 16 9 17 10 19 11 20 15 21 12 22 14 23 13 24
REMARK SMILES IDX 16 25
REMARK H PARENT 5 2 9 18
ROOT
ATOM      1  N   UNL     1       1.430  -0.087  -1.741  1.00  0.00    -0.354 N 
ATOM      2  H   UNL     1       1.291   0.890  -1.511  1.00  0.00     0.163 HD
ENDROOT
BRANCH   1   3
ATOM      3  C   UNL     1       2.800  -0.518  -1.952  1.00  0.00     0.116 C 
BRANCH   3   4
ATOM      4  C   UNL     1       3.714  -0.254  -0.749  1.00  0.00     0.021 C 
BRANCH   4   5
ATOM      5  C   UNL     1       4.336   1.146  -0.704  1.00  0.00    -0.002 C 
ATOM      6  C   UNL     1       3.342   2.275  -0.499  1.00  0.00     0.004 C 
ENDBRANCH   4   5
ENDBRANCH   3   4
ENDBRANCH   1   3
BRANCH   1   7
ATOM      7  C   UNL     1       0.672  -0.803  -0.828  1.00  0.00     0.226 A 
ATOM      8  N   UNL     1      -0.202  -0.057  -0.131  1.00  0.00    -0.195 NA
ATOM      9  N   UNL     1       0.849  -2.124  -0.698  1.00  0.00    -0.193 NA
ATOM     10  C   UNL     1      -1.022  -0.626   0.791  1.00  0.00     0.147 A 
ATOM     11  C   UNL     1       0.040  -2.667   0.223  1.00  0.00     0.165 A 
ATOM     12  C   UNL     1      -0.896  -2.004   0.991  1.00  0.00     0.082 A 
ATOM     13  N   UNL     1      -0.032  -3.982   0.594  1.00  0.00    -0.250 N 
ATOM     14  C   UNL     1      -1.466  -3.011   1.797  1.00  0.00     0.149 A 
ATOM     15  N   UNL     1      -0.948  -4.222   1.561  1.00  0.00    -0.179 NA
ATOM     16  C   UNL     1       0.748  -5.074   0.068  1.00  0.00     0.176 C 
BRANCH  10  17
ATOM     17  N   UNL     1      -1.926   0.159   1.524  1.00  0.00    -0.339 N 
ATOM     18  H   UNL     1      -2.632  -0.385   2.004  1.00  0.00     0.168 HD
BRANCH  17  19
ATOM     19  C   UNL     1      -2.413   1.435   1.167  1.00  0.00     0.043 A 
ATOM     20  C   UNL     1      -2.359   2.438   2.150  1.00  0.00     0.026 A 
ATOM     21  C   UNL     1      -3.086   1.704  -0.041  1.00  0.00    -0.028 A 
ATOM     22  C   UNL     1      -2.882   3.709   1.917  1.00  0.00     0.002 A 
ATOM     23  C   UNL     1      -3.594   2.996  -0.270  1.00  0.00     0.005 A 
ATOM     24  C   UNL     1      -3.492   3.991   0.702  1.00  0.00     0.000 A 
ATOM     25  C   UNL     1      -3.259   0.672  -1.121  1.00  0.00     0.046 C 
ENDBRANCH  17  19
ENDBRANCH  10  17
ENDBRANCH   1   7
TORSDOF 6
