_i0
     RDKit          3D

 45 47  0  0  0  0  0  0  0  0999 V2000
    3.3418    2.2753   -0.4991 C   0  0  0  0  0  0  0  0  0  0  0  0
    4.3362    1.1457   -0.7044 C   0  0  0  0  0  0  0  0  0  0  0  0
    3.7142   -0.2543   -0.7492 C   0  0  0  0  0  0  0  0  0  0  0  0
    2.8003   -0.5181   -1.9516 C   0  0  0  0  0  0  0  0  0  0  0  0
    1.4303   -0.0866   -1.7411 N   0  0  0  0  0  0  0  0  0  0  0  0
    0.6725   -0.8026   -0.8278 C   0  0  0  0  0  0  0  0  0  0  0  0
   -0.2017   -0.0568   -0.1314 N   0  0  0  0  0  0  0  0  0  0  0  0
   -1.0217   -0.6261    0.7909 C   0  0  0  0  0  0  0  0  0  0  0  0
   -1.9262    0.1591    1.5243 N   0  0  0  0  0  0  0  0  0  0  0  0
   -2.4130    1.4351    1.1675 C   0  0  0  0  0  0  0  0  0  0  0  0
   -2.3593    2.4375    2.1504 C   0  0  0  0  0  0  0  0  0  0  0  0
   -2.8819    3.7095    1.9175 C   0  0  0  0  0  0  0  0  0  0  0  0
   -3.4919    3.9914    0.7015 C   0  0  0  0  0  0  0  0  0  0  0  0
   -3.5943    2.9958   -0.2695 C   0  0  0  0  0  0  0  0  0  0  0  0
   -3.0864    1.7036   -0.0405 C   0  0  0  0  0  0  0  0  0  0  0  0
   -3.2593    0.6718   -1.1212 C   0  0  0  0  0  0  0  0  0  0  0  0
   -0.8959   -2.0037    0.9911 C   0  0  0  0  0  0  0  0  0  0  0  0
   -1.4656   -3.0106    1.7970 C   0  0  0  0  0  0  0  0  0  0  0  0
   -0.9484   -4.2216    1.5611 N   0  0  0  0  0  0  0  0  0  0  0  0
   -0.0316   -3.9821    0.5935 N   0  0  0  0  0  0  0  0  0  0  0  0
    0.7479   -5.0742    0.0677 C   0  0  0  0  0  0  0  0  0  0  0  0
    0.0396   -2.6673    0.2225 C   0  0  0  0  0  0  0  0  0  0  0  0
    0.8489   -2.1243   -0.6977 N   0  0  0  0  0  0  0  0  0  0  0  0
    3.8744    3.2085   -0.2887 H   0  0  0  0  0  0  0  0  0  0  0  0
    2.7400    2.4432   -1.3964 H   0  0  0  0  0  0  0  0  0  0  0  0
    2.6740    2.0696    0.3431 H   0  0  0  0  0  0  0  0  0  0  0  0
    4.9088    1.3284   -1.6214 H   0  0  0  0  0  0  0  0  0  0  0  0
    5.0571    1.1687    0.1221 H   0  0  0  0  0  0  0  0  0  0  0  0
    3.2025   -0.4605    0.1979 H   0  0  0  0  0  0  0  0  0  0  0  0
    4.5472   -0.9671   -0.8082 H   0  0  0  0  0  0  0  0  0  0  0  0
    2.8245   -1.5859   -2.2037 H   0  0  0  0  0  0  0  0  0  0  0  0
    3.1936    0.0004   -2.8338 H   0  0  0  0  0  0  0  0  0  0  0  0
    1.2907    0.8905   -1.5109 H   0  0  0  0  0  0  0  0  0  0  0  0
   -2.6318   -0.3850    2.0044 H   0  0  0  0  0  0  0  0  0  0  0  0
   -1.8782    2.2294    3.1034 H   0  0  0  0  0  0  0  0  0  0  0  0
   -2.8071    4.4767    2.6829 H   0  0  0  0  0  0  0  0  0  0  0  0
   -3.8942    4.9823    0.5091 H   0  0  0  0  0  0  0  0  0  0  0  0
   -4.0849    3.2302   -1.2121 H   0  0  0  0  0  0  0  0  0  0  0  0
   -4.0997    0.9277   -1.7763 H   0  0  0  0  0  0  0  0  0  0  0  0
   -2.3578    0.6102   -1.7373 H   0  0  0  0  0  0  0  0  0  0  0  0
   -3.4871   -0.3116   -0.6985 H   0  0  0  0  0  0  0  0  0  0  0  0
   -2.2381   -2.9154    2.5487 H   0  0  0  0  0  0  0  0  0  0  0  0
    1.3114   -5.5215    0.8904 H   0  0  0  0  0  0  0  0  0  0  0  0
    0.0634   -5.8059   -0.3689 H   0  0  0  0  0  0  0  0  0  0  0  0
    1.4369   -4.7094   -0.6973 H   0  0  0  0  0  0  0  0  0  0  0  0
  1  2  1  0
  2  3  1  0
  3  4  1  0
  4  5  1  0
  5  6  1  0
  6  7  2  0
  7  8  1  0
  8  9  1  0
  9 10  1  0
 10 11  2  0
 11 12  1  0
 12 13  2  0
 13 14  1  0
 14 15  2  0
 15 16  1  0
  8 17  2  0
 17 18  1  0
 18 19  2  0
 19 20  1  0
 20 21  1  0
 20 22  1  0
 22 23  2  0
 23  6  1  0
 15 10  1  0
 22 17  1  0
  1 24  1  0
  1 25  1  0
  1 26  1  0
  2 27  1  0
  2 28  1  0
  3 29  1  0
  3 30  1  0
  4 31  1  0
  4 32  1  0
  5 33  1  0
  9 34  1  0
 11 35  1  0
 12 36  1  0
 13 37  1  0
 14 38  1  0
 16 39  1  0
 16 40  1  0
 16 41  1  0
 18 42  1  0
 21 43  1  0
 21 44  1  0
 21 45  1  0
M  END
>  <ScrubInfo>  (1) 
{"isomerGroup": 0, "isomerId": 0, "confId": 0, "nr_conformers:": 1, "nr_isomers:": 9}

$$$$
_i1
     RDKit          3D

 45 47  0  0  0  0  0  0  0  0999 V2000
   -0.2972    0.0936    0.6090 N   0  0  0  0  0  0  0  0  0  0  0  0
   -1.3431    0.7329   -0.0279 C   0  0  0  0  0  0  0  0  0  0  0  0
   -2.5950    0.1625   -0.1662 N   0  0  0  0  0  0  0  0  0  0  0  0
   -2.9316   -1.2041   -0.2957 C   0  0  0  0  0  0  0  0  0  0  0  0
   -1.9977   -2.1656   -0.7144 C   0  0  0  0  0  0  0  0  0  0  0  0
   -2.3394   -3.5164   -0.8090 C   0  0  0  0  0  0  0  0  0  0  0  0
   -3.6235   -3.9324   -0.4806 C   0  0  0  0  0  0  0  0  0  0  0  0
   -4.5656   -2.9984   -0.0561 C   0  0  0  0  0  0  0  0  0  0  0  0
   -4.2324   -1.6366    0.0481 C   0  0  0  0  0  0  0  0  0  0  0  0
   -5.2802   -0.6707    0.5337 C   0  0  0  0  0  0  0  0  0  0  0  0
   -1.0600    1.9676   -0.4613 C   0  0  0  0  0  0  0  0  0  0  0  0
   -1.7341    3.0482   -1.1888 C   0  0  0  0  0  0  0  0  0  0  0  0
   -0.9609    4.0806   -1.4107 N   0  0  0  0  0  0  0  0  0  0  0  0
    0.2636    3.7665   -0.7992 N   0  0  0  0  0  0  0  0  0  0  0  0
    1.4271    4.5608   -1.1104 C   0  0  0  0  0  0  0  0  0  0  0  0
    0.3055    2.4973   -0.2447 C   0  0  0  0  0  0  0  0  0  0  0  0
    1.2743    1.8702    0.3307 N   0  0  0  0  0  0  0  0  0  0  0  0
    0.9551    0.6148    0.7990 C   0  0  0  0  0  0  0  0  0  0  0  0
    1.8301   -0.0970    1.4271 N   0  0  0  0  0  0  0  0  0  0  0  0
    3.1676    0.4556    1.6432 C   0  0  0  0  0  0  0  0  0  0  0  0
    4.0887    0.1245    0.4687 C   0  0  0  0  0  0  0  0  0  0  0  0
    4.3238   -1.3796    0.3122 C   0  0  0  0  0  0  0  0  0  0  0  0
    5.2818   -1.6753   -0.8313 C   0  0  0  0  0  0  0  0  0  0  0  0
   -0.4928   -0.7918    1.0532 H   0  0  0  0  0  0  0  0  0  0  0  0
   -3.3296    0.7762   -0.5007 H   0  0  0  0  0  0  0  0  0  0  0  0
   -0.9933   -1.8741   -1.0114 H   0  0  0  0  0  0  0  0  0  0  0  0
   -1.6011   -4.2398   -1.1456 H   0  0  0  0  0  0  0  0  0  0  0  0
   -3.8920   -4.9831   -0.5542 H   0  0  0  0  0  0  0  0  0  0  0  0
   -5.5653   -3.3418    0.2023 H   0  0  0  0  0  0  0  0  0  0  0  0
   -6.1899   -1.1899    0.8536 H   0  0  0  0  0  0  0  0  0  0  0  0
   -4.9092   -0.1049    1.3944 H   0  0  0  0  0  0  0  0  0  0  0  0
   -5.5559    0.0216   -0.2681 H   0  0  0  0  0  0  0  0  0  0  0  0
   -2.7762    2.9486   -1.5175 H   0  0  0  0  0  0  0  0  0  0  0  0
    1.1536    5.6119   -1.2487 H   0  0  0  0  0  0  0  0  0  0  0  0
    2.1618    4.5114   -0.3003 H   0  0  0  0  0  0  0  0  0  0  0  0
    1.8982    4.2015   -2.0305 H   0  0  0  0  0  0  0  0  0  0  0  0
    3.5719    0.0148    2.5621 H   0  0  0  0  0  0  0  0  0  0  0  0
    3.1507    1.5374    1.8213 H   0  0  0  0  0  0  0  0  0  0  0  0
    5.0517    0.6237    0.6314 H   0  0  0  0  0  0  0  0  0  0  0  0
    3.6727    0.5287   -0.4619 H   0  0  0  0  0  0  0  0  0  0  0  0
    4.7357   -1.7905    1.2411 H   0  0  0  0  0  0  0  0  0  0  0  0
    3.3751   -1.8939    0.1217 H   0  0  0  0  0  0  0  0  0  0  0  0
    4.8846   -1.3041   -1.7815 H   0  0  0  0  0  0  0  0  0  0  0  0
    6.2557   -1.2064   -0.6588 H   0  0  0  0  0  0  0  0  0  0  0  0
    5.4367   -2.7546   -0.9263 H   0  0  0  0  0  0  0  0  0  0  0  0
  1  2  1  0
  2  3  1  0
  3  4  1  0
  4  5  2  0
  5  6  1  0
  6  7  2  0
  7  8  1  0
  8  9  2  0
  9 10  1  0
  2 11  2  0
 11 12  1  0
 12 13  2  0
 13 14  1  0
 14 15  1  0
 14 16  1  0
 16 17  2  0
 17 18  1  0
 18 19  2  3
 19 20  1  0
 20 21  1  0
 21 22  1  0
 22 23  1  0
 18  1  1  0
  9  4  1  0
 16 11  1  0
  1 24  1  0
  3 25  1  0
  5 26  1  0
  6 27  1  0
  7 28  1  0
  8 29  1  0
 10 30  1  0
 10 31  1  0
 10 32  1  0
 12 33  1  0
 15 34  1  0
 15 35  1  0
 15 36  1  0
 20 37  1  0
 20 38  1  0
 21 39  1  0
 21 40  1  0
 22 41  1  0
 22 42  1  0
 23 43  1  0
 23 44  1  0
 23 45  1  0
M  END
>  <ScrubInfo>  (2) 
{"isomerGroup": 0, "isomerId": 1, "confId": 0, "nr_conformers:": 1, "nr_isomers:": 9}

$$$$
_i2
     RDKit          3D

 45 47  0  0  0  0  0  0  0  0999 V2000
   -0.5421   -0.1353   -0.2896 N   0  0  0  0  0  0  0  0  0  0  0  0
    0.7373   -0.4379   -0.7050 C   0  0  0  0  0  0  0  0  0  0  0  0
    1.6766   -0.1686    0.2561 N   0  0  0  0  0  0  0  0  0  0  0  0
    3.0758   -0.5100    0.0354 C   0  0  0  0  0  0  0  0  0  0  0  0
    3.9448    0.0296    1.1721 C   0  0  0  0  0  0  0  0  0  0  0  0
    3.9997    1.5591    1.1943 C   0  0  0  0  0  0  0  0  0  0  0  0
    4.9086    2.0657    2.3035 C   0  0  0  0  0  0  0  0  0  0  0  0
    1.0292   -0.9189   -1.8874 N   0  0  0  0  0  0  0  0  0  0  0  0
   -0.0873   -1.0971   -2.6481 C   0  0  0  0  0  0  0  0  0  0  0  0
   -1.3983   -0.8213   -2.3143 C   0  0  0  0  0  0  0  0  0  0  0  0
   -2.1524   -1.1828   -3.4384 C   0  0  0  0  0  0  0  0  0  0  0  0
   -1.3871   -1.6620   -4.4286 N   0  0  0  0  0  0  0  0  0  0  0  0
   -0.1303   -1.5941   -3.9211 N   0  0  0  0  0  0  0  0  0  0  0  0
    0.9812   -2.0293   -4.7279 C   0  0  0  0  0  0  0  0  0  0  0  0
   -1.7039   -0.2682   -1.0210 C   0  0  0  0  0  0  0  0  0  0  0  0
   -2.9311    0.0168   -0.7376 N   0  0  0  0  0  0  0  0  0  0  0  0
   -3.1956    0.5568    0.5300 C   0  0  0  0  0  0  0  0  0  0  0  0
   -3.1562    1.9460    0.6991 C   0  0  0  0  0  0  0  0  0  0  0  0
   -3.3885    2.5177    1.9496 C   0  0  0  0  0  0  0  0  0  0  0  0
   -3.6710    1.7018    3.0416 C   0  0  0  0  0  0  0  0  0  0  0  0
   -3.7328    0.3167    2.8813 C   0  0  0  0  0  0  0  0  0  0  0  0
   -3.5092   -0.2676    1.6251 C   0  0  0  0  0  0  0  0  0  0  0  0
   -3.5878   -1.7602    1.4683 C   0  0  0  0  0  0  0  0  0  0  0  0
   -0.6331    0.3601    0.5817 H   0  0  0  0  0  0  0  0  0  0  0  0
    1.3706   -0.3681    1.2009 H   0  0  0  0  0  0  0  0  0  0  0  0
    3.1777   -1.6006   -0.0063 H   0  0  0  0  0  0  0  0  0  0  0  0
    3.4242   -0.1018   -0.9206 H   0  0  0  0  0  0  0  0  0  0  0  0
    4.9612   -0.3641    1.0495 H   0  0  0  0  0  0  0  0  0  0  0  0
    3.5719   -0.3400    2.1354 H   0  0  0  0  0  0  0  0  0  0  0  0
    4.3668    1.9320    0.2311 H   0  0  0  0  0  0  0  0  0  0  0  0
    2.9958    1.9731    1.3416 H   0  0  0  0  0  0  0  0  0  0  0  0
    5.9321    1.7015    2.1693 H   0  0  0  0  0  0  0  0  0  0  0  0
    4.5516    1.7356    3.2843 H   0  0  0  0  0  0  0  0  0  0  0  0
    4.9346    3.1599    2.3020 H   0  0  0  0  0  0  0  0  0  0  0  0
   -3.2235   -1.1181   -3.5791 H   0  0  0  0  0  0  0  0  0  0  0  0
    1.9172   -1.9004   -4.1799 H   0  0  0  0  0  0  0  0  0  0  0  0
    1.0009   -1.4270   -5.6397 H   0  0  0  0  0  0  0  0  0  0  0  0
    0.8368   -3.0851   -4.9707 H   0  0  0  0  0  0  0  0  0  0  0  0
   -2.9460    2.5842   -0.1558 H   0  0  0  0  0  0  0  0  0  0  0  0
   -3.3574    3.5976    2.0677 H   0  0  0  0  0  0  0  0  0  0  0  0
   -3.8582    2.1443    4.0170 H   0  0  0  0  0  0  0  0  0  0  0  0
   -3.9702   -0.3052    3.7419 H   0  0  0  0  0  0  0  0  0  0  0  0
   -4.0146   -2.2330    2.3592 H   0  0  0  0  0  0  0  0  0  0  0  0
   -2.5879   -2.1764    1.3107 H   0  0  0  0  0  0  0  0  0  0  0  0
   -4.2300   -2.0254    0.6221 H   0  0  0  0  0  0  0  0  0  0  0  0
  1  2  1  0
  2  3  1  0
  3  4  1  0
  4  5  1  0
  5  6  1  0
  6  7  1  0
  2  8  2  0
  8  9  1  0
  9 10  2  0
 10 11  1  0
 11 12  2  0
 12 13  1  0
 13 14  1  0
 10 15  1  0
 15 16  2  3
 16 17  1  0
 17 18  2  0
 18 19  1  0
 19 20  2  0
 20 21  1  0
 21 22  2  0
 22 23  1  0
 15  1  1  0
 22 17  1  0
 13  9  1  0
  1 24  1  0
  3 25  1  0
  4 26  1  0
  4 27  1  0
  5 28  1  0
  5 29  1  0
  6 30  1  0
  6 31  1  0
  7 32  1  0
  7 33  1  0
  7 34  1  0
 11 35  1  0
 14 36  1  0
 14 37  1  0
 14 38  1  0
 18 39  1  0
 19 40  1  0
 20 41  1  0
 21 42  1  0
 23 43  1  0
 23 44  1  0
 23 45  1  0
M  END
>  <ScrubInfo>  (3) 
{"isomerGroup": 0, "isomerId": 2, "confId": 0, "nr_conformers:": 1, "nr_isomers:": 9}

$$$$
_i3
     RDKit          3D

 45 47  0  0  0  0  0  0  0  0999 V2000
    1.3088    1.9425    0.1866 N   0  0  0  0  0  0  0  0  0  0  0  0
    1.1758    0.5765    0.0068 C   0  0  0  0  0  0  0  0  0  0  0  0
    2.1276   -0.2880    0.0317 N   0  0  0  0  0  0  0  0  0  0  0  0
    3.4940    0.1523    0.2699 C   0  0  0  0  0  0  0  0  0  0  0  0
    4.4212   -1.0636    0.2628 C   0  0  0  0  0  0  0  0  0  0  0  0
    4.1734   -1.9960    1.4510 C   0  0  0  0  0  0  0  0  0  0  0  0
    5.1362   -3.1731    1.4430 C   0  0  0  0  0  0  0  0  0  0  0  0
   -0.0634    0.0057   -0.2254 N   0  0  0  0  0  0  0  0  0  0  0  0
   -1.1411    0.7309   -0.2733 C   0  0  0  0  0  0  0  0  0  0  0  0
   -2.4353    0.3218   -0.4946 N   0  0  0  0  0  0  0  0  0  0  0  0
   -2.9515   -0.9847   -0.6547 C   0  0  0  0  0  0  0  0  0  0  0  0
   -2.1610   -2.1348   -0.5090 C   0  0  0  0  0  0  0  0  0  0  0  0
   -2.6883   -3.4174   -0.6879 C   0  0  0  0  0  0  0  0  0  0  0  0
   -4.0243   -3.5808   -1.0246 C   0  0  0  0  0  0  0  0  0  0  0  0
   -4.8325   -2.4601   -1.1867 C   0  0  0  0  0  0  0  0  0  0  0  0
   -4.3129   -1.1631   -1.0122 C   0  0  0  0  0  0  0  0  0  0  0  0
   -5.2455    0.0026   -1.2159 C   0  0  0  0  0  0  0  0  0  0  0  0
   -1.0346    2.1683   -0.0854 C   0  0  0  0  0  0  0  0  0  0  0  0
   -1.8916    3.2820   -0.0593 C   0  0  0  0  0  0  0  0  0  0  0  0
   -1.2356    4.4308    0.1627 N   0  0  0  0  0  0  0  0  0  0  0  0
    0.0589    4.0472    0.2807 N   0  0  0  0  0  0  0  0  0  0  0  0
    1.0657    5.0473    0.5295 C   0  0  0  0  0  0  0  0  0  0  0  0
    0.2046    2.7043    0.1372 C   0  0  0  0  0  0  0  0  0  0  0  0
    2.2374    2.2998    0.3483 H   0  0  0  0  0  0  0  0  0  0  0  0
    3.5792    0.6726    1.2313 H   0  0  0  0  0  0  0  0  0  0  0  0
    3.8138    0.8356   -0.5259 H   0  0  0  0  0  0  0  0  0  0  0  0
    4.2954   -1.6198   -0.6744 H   0  0  0  0  0  0  0  0  0  0  0  0
    5.4596   -0.7115    0.2924 H   0  0  0  0  0  0  0  0  0  0  0  0
    3.1463   -2.3771    1.4266 H   0  0  0  0  0  0  0  0  0  0  0  0
    4.2918   -1.4418    2.3894 H   0  0  0  0  0  0  0  0  0  0  0  0
    6.1744   -2.8315    1.5036 H   0  0  0  0  0  0  0  0  0  0  0  0
    5.0220   -3.7669    0.5305 H   0  0  0  0  0  0  0  0  0  0  0  0
    4.9432   -3.8263    2.2998 H   0  0  0  0  0  0  0  0  0  0  0  0
   -3.1474    1.0332   -0.5014 H   0  0  0  0  0  0  0  0  0  0  0  0
   -1.1098   -2.0675   -0.2431 H   0  0  0  0  0  0  0  0  0  0  0  0
   -2.0445   -4.2843   -0.5627 H   0  0  0  0  0  0  0  0  0  0  0  0
   -4.4343   -4.5772   -1.1642 H   0  0  0  0  0  0  0  0  0  0  0  0
   -5.8767   -2.6040   -1.4561 H   0  0  0  0  0  0  0  0  0  0  0  0
   -6.2416   -0.3252   -1.5323 H   0  0  0  0  0  0  0  0  0  0  0  0
   -4.8593    0.6672   -1.9956 H   0  0  0  0  0  0  0  0  0  0  0  0
   -5.3640    0.5604   -0.2814 H   0  0  0  0  0  0  0  0  0  0  0  0
   -2.9644    3.3253   -0.1899 H   0  0  0  0  0  0  0  0  0  0  0  0
    1.0504    5.7640   -0.2955 H   0  0  0  0  0  0  0  0  0  0  0  0
    2.0497    4.5787    0.5940 H   0  0  0  0  0  0  0  0  0  0  0  0
    0.8301    5.5455    1.4734 H   0  0  0  0  0  0  0  0  0  0  0  0
  1  2  1  0
  2  3  2  3
  3  4  1  0
  4  5  1  0
  5  6  1  0
  6  7  1  0
  2  8  1  0
  8  9  2  0
  9 10  1  0
 10 11  1  0
 11 12  2  0
 12 13  1  0
 13 14  2  0
 14 15  1  0
 15 16  2  0
 16 17  1  0
  9 18  1  0
 18 19  1  0
 19 20  2  0
 20 21  1  0
 21 22  1  0
 21 23  1  0
 23  1  1  0
 16 11  1  0
 23 18  2  0
  1 24  1  0
  4 25  1  0
  4 26  1  0
  5 27  1  0
  5 28  1  0
  6 29  1  0
  6 30  1  0
  7 31  1  0
  7 32  1  0
  7 33  1  0
 10 34  1  0
 12 35  1  0
 13 36  1  0
 14 37  1  0
 15 38  1  0
 17 39  1  0
 17 40  1  0
 17 41  1  0
 19 42  1  0
 22 43  1  0
 22 44  1  0
 22 45  1  0
M  END
>  <ScrubInfo>  (4) 
{"isomerGroup": 0, "isomerId": 3, "confId": 0, "nr_conformers:": 1, "nr_isomers:": 9}

$$$$
_i4
     RDKit          3D

 45 47  0  0  0  0  0  0  0  0999 V2000
    2.0750    2.8498   -1.2195 N   0  0  0  0  0  0  0  0  0  0  0  0
    2.3696    1.6763   -0.5330 C   0  0  0  0  0  0  0  0  0  0  0  0
    1.2869    0.9365   -0.2484 C   0  0  0  0  0  0  0  0  0  0  0  0
    0.9495   -0.3290    0.3906 C   0  0  0  0  0  0  0  0  0  0  0  0
    1.6925   -1.1824    1.0136 N   0  0  0  0  0  0  0  0  0  0  0  0
    3.0643   -0.9543    1.1675 C   0  0  0  0  0  0  0  0  0  0  0  0
    3.5163   -0.2444    2.2868 C   0  0  0  0  0  0  0  0  0  0  0  0
    4.8769   -0.0029    2.4760 C   0  0  0  0  0  0  0  0  0  0  0  0
    5.7998   -0.4828    1.5508 C   0  0  0  0  0  0  0  0  0  0  0  0
    5.3644   -1.2151    0.4453 C   0  0  0  0  0  0  0  0  0  0  0  0
    3.9980   -1.4704    0.2508 C   0  0  0  0  0  0  0  0  0  0  0  0
    3.5459   -2.2728   -0.9367 C   0  0  0  0  0  0  0  0  0  0  0  0
   -0.3781   -0.6536    0.3060 N   0  0  0  0  0  0  0  0  0  0  0  0
   -1.2713    0.1186   -0.2313 C   0  0  0  0  0  0  0  0  0  0  0  0
   -2.5812   -0.2635   -0.2915 N   0  0  0  0  0  0  0  0  0  0  0  0
   -3.1192   -1.3042    0.5603 C   0  0  0  0  0  0  0  0  0  0  0  0
   -4.5743   -1.6072    0.1994 C   0  0  0  0  0  0  0  0  0  0  0  0
   -5.5383   -0.4982    0.6291 C   0  0  0  0  0  0  0  0  0  0  0  0
   -6.9805   -0.8648    0.3136 C   0  0  0  0  0  0  0  0  0  0  0  0
   -1.0307    1.3544   -0.7683 N   0  0  0  0  0  0  0  0  0  0  0  0
    0.1895    1.7645   -0.7818 C   0  0  0  0  0  0  0  0  0  0  0  0
    0.6936    2.9708   -1.2724 N   0  0  0  0  0  0  0  0  0  0  0  0
    0.0886    3.6156   -2.4224 C   0  0  0  0  0  0  0  0  0  0  0  0
    2.5864    3.6621   -0.8670 H   0  0  0  0  0  0  0  0  0  0  0  0
    3.4021    1.4696   -0.2926 H   0  0  0  0  0  0  0  0  0  0  0  0
    2.7960    0.1165    3.0166 H   0  0  0  0  0  0  0  0  0  0  0  0
    5.2140    0.5496    3.3488 H   0  0  0  0  0  0  0  0  0  0  0  0
    6.8616   -0.3014    1.6973 H   0  0  0  0  0  0  0  0  0  0  0  0
    6.0995   -1.5978   -0.2593 H   0  0  0  0  0  0  0  0  0  0  0  0
    3.0153   -1.6312   -1.6472 H   0  0  0  0  0  0  0  0  0  0  0  0
    2.8879   -3.0891   -0.6214 H   0  0  0  0  0  0  0  0  0  0  0  0
    4.3953   -2.7245   -1.4600 H   0  0  0  0  0  0  0  0  0  0  0  0
   -3.1871    0.5222   -0.4863 H   0  0  0  0  0  0  0  0  0  0  0  0
   -3.0418   -1.0089    1.6130 H   0  0  0  0  0  0  0  0  0  0  0  0
   -2.5354   -2.2226    0.4275 H   0  0  0  0  0  0  0  0  0  0  0  0
   -4.6646   -1.7796   -0.8803 H   0  0  0  0  0  0  0  0  0  0  0  0
   -4.8657   -2.5396    0.6987 H   0  0  0  0  0  0  0  0  0  0  0  0
   -5.2942    0.4406    0.1206 H   0  0  0  0  0  0  0  0  0  0  0  0
   -5.4417   -0.3186    1.7061 H   0  0  0  0  0  0  0  0  0  0  0  0
   -7.2765   -1.7798    0.8366 H   0  0  0  0  0  0  0  0  0  0  0  0
   -7.1188   -1.0224   -0.7608 H   0  0  0  0  0  0  0  0  0  0  0  0
   -7.6533   -0.0611    0.6286 H   0  0  0  0  0  0  0  0  0  0  0  0
   -0.9774    3.7935   -2.2479 H   0  0  0  0  0  0  0  0  0  0  0  0
    0.5625    4.5849   -2.6083 H   0  0  0  0  0  0  0  0  0  0  0  0
    0.1989    2.9966   -3.3189 H   0  0  0  0  0  0  0  0  0  0  0  0
  1  2  1  0
  2  3  2  0
  3  4  1  0
  4  5  2  3
  5  6  1  0
  6  7  2  0
  7  8  1  0
  8  9  2  0
  9 10  1  0
 10 11  2  0
 11 12  1  0
  4 13  1  0
 13 14  2  0
 14 15  1  0
 15 16  1  0
 16 17  1  0
 17 18  1  0
 18 19  1  0
 14 20  1  0
 20 21  2  0
 21 22  1  0
 22 23  1  0
 22  1  1  0
 21  3  1  0
 11  6  1  0
  1 24  1  0
  2 25  1  0
  7 26  1  0
  8 27  1  0
  9 28  1  0
 10 29  1  0
 12 30  1  0
 12 31  1  0
 12 32  1  0
 15 33  1  0
 16 34  1  0
 16 35  1  0
 17 36  1  0
 17 37  1  0
 18 38  1  0
 18 39  1  0
 19 40  1  0
 19 41  1  0
 19 42  1  0
 23 43  1  0
 23 44  1  0
 23 45  1  0
M  END
>  <ScrubInfo>  (5) 
{"isomerGroup": 0, "isomerId": 4, "confId": 0, "nr_conformers:": 1, "nr_isomers:": 9}

$$$$
_i5
     RDKit          3D

 45 47  0  0  0  0  0  0  0  0999 V2000
    0.6453   -1.7967    0.7055 N   0  0  0  0  0  0  0  0  0  0  0  0
    0.3285   -0.4661    0.5540 C   0  0  0  0  0  0  0  0  0  0  0  0
    1.2199    0.4106    1.1044 N   0  0  0  0  0  0  0  0  0  0  0  0
    2.6371    0.3665    0.7632 C   0  0  0  0  0  0  0  0  0  0  0  0
    3.3748    1.4760    1.5133 C   0  0  0  0  0  0  0  0  0  0  0  0
    4.8911    1.4369    1.3159 C   0  0  0  0  0  0  0  0  0  0  0  0
    5.3229    1.7084   -0.1168 C   0  0  0  0  0  0  0  0  0  0  0  0
   -0.7331    0.0024   -0.0423 N   0  0  0  0  0  0  0  0  0  0  0  0
   -1.6449   -0.8876   -0.5961 C   0  0  0  0  0  0  0  0  0  0  0  0
   -2.7159   -0.5387   -1.2343 N   0  0  0  0  0  0  0  0  0  0  0  0
   -2.9809    0.8322   -1.3848 C   0  0  0  0  0  0  0  0  0  0  0  0
   -2.4846    1.5037   -2.5091 C   0  0  0  0  0  0  0  0  0  0  0  0
   -2.7490    2.8592   -2.7063 C   0  0  0  0  0  0  0  0  0  0  0  0
   -3.5229    3.5548   -1.7816 C   0  0  0  0  0  0  0  0  0  0  0  0
   -4.0383    2.8939   -0.6657 C   0  0  0  0  0  0  0  0  0  0  0  0
   -3.7845    1.5279   -0.4633 C   0  0  0  0  0  0  0  0  0  0  0  0
   -4.3464    0.8326    0.7438 C   0  0  0  0  0  0  0  0  0  0  0  0
   -1.3695   -2.2926   -0.4338 C   0  0  0  0  0  0  0  0  0  0  0  0
   -2.0093   -3.4901   -0.7795 C   0  0  0  0  0  0  0  0  0  0  0  0
   -1.3256   -4.5699   -0.3639 N   0  0  0  0  0  0  0  0  0  0  0  0
   -0.2374   -4.0458    0.2544 N   0  0  0  0  0  0  0  0  0  0  0  0
    0.7366   -4.9361    0.8316 C   0  0  0  0  0  0  0  0  0  0  0  0
   -0.2349   -2.6881    0.2185 C   0  0  0  0  0  0  0  0  0  0  0  0
    1.3728   -2.0242    1.3688 H   0  0  0  0  0  0  0  0  0  0  0  0
    0.8468    1.3490    0.9606 H   0  0  0  0  0  0  0  0  0  0  0  0
    3.0640   -0.6044    1.0372 H   0  0  0  0  0  0  0  0  0  0  0  0
    2.7491    0.4941   -0.3188 H   0  0  0  0  0  0  0  0  0  0  0  0
    3.1635    1.3862    2.5867 H   0  0  0  0  0  0  0  0  0  0  0  0
    2.9872    2.4551    1.2046 H   0  0  0  0  0  0  0  0  0  0  0  0
    5.3457    2.1938    1.9662 H   0  0  0  0  0  0  0  0  0  0  0  0
    5.2845    0.4656    1.6376 H   0  0  0  0  0  0  0  0  0  0  0  0
    4.9931    0.9139   -0.7926 H   0  0  0  0  0  0  0  0  0  0  0  0
    6.4148    1.7612   -0.1762 H   0  0  0  0  0  0  0  0  0  0  0  0
    4.9179    2.6597   -0.4760 H   0  0  0  0  0  0  0  0  0  0  0  0
   -1.8845    0.9594   -3.2327 H   0  0  0  0  0  0  0  0  0  0  0  0
   -2.3526    3.3675   -3.5805 H   0  0  0  0  0  0  0  0  0  0  0  0
   -3.7304    4.6110   -1.9306 H   0  0  0  0  0  0  0  0  0  0  0  0
   -4.6451    3.4494    0.0453 H   0  0  0  0  0  0  0  0  0  0  0  0
   -3.5440    0.5876    1.4467 H   0  0  0  0  0  0  0  0  0  0  0  0
   -5.0721    1.4644    1.2669 H   0  0  0  0  0  0  0  0  0  0  0  0
   -4.8674   -0.0852    0.4521 H   0  0  0  0  0  0  0  0  0  0  0  0
   -2.9438   -3.6245   -1.3093 H   0  0  0  0  0  0  0  0  0  0  0  0
    1.0835   -5.6210    0.0537 H   0  0  0  0  0  0  0  0  0  0  0  0
    1.5807   -4.3626    1.2203 H   0  0  0  0  0  0  0  0  0  0  0  0
    0.2575   -5.4896    1.6430 H   0  0  0  0  0  0  0  0  0  0  0  0
  1  2  1  0
  2  3  1  0
  3  4  1  0
  4  5  1  0
  5  6  1  0
  6  7  1  0
  2  8  2  0
  8  9  1  0
  9 10  2  3
 10 11  1  0
 11 12  2  0
 12 13  1  0
 13 14  2  0
 14 15  1  0
 15 16  2  0
 16 17  1  0
  9 18  1  0
 18 19  1  0
 19 20  2  0
 20 21  1  0
 21 22  1  0
 21 23  1  0
 23  1  1  0
 16 11  1  0
 23 18  2  0
  1 24  1  0
  3 25  1  0
  4 26  1  0
  4 27  1  0
  5 28  1  0
  5 29  1  0
  6 30  1  0
  6 31  1  0
  7 32  1  0
  7 33  1  0
  7 34  1  0
 12 35  1  0
 13 36  1  0
 14 37  1  0
 15 38  1  0
 17 39  1  0
 17 40  1  0
 17 41  1  0
 19 42  1  0
 22 43  1  0
 22 44  1  0
 22 45  1  0
M  END
>  <ScrubInfo>  (6) 
{"isomerGroup": 0, "isomerId": 5, "confId": 0, "nr_conformers:": 1, "nr_isomers:": 9}

$$$$
_i6
     RDKit          3D

 45 47  0  0  0  0  0  0  0  0999 V2000
   -1.5050    3.2593   -0.4517 N   0  0  0  0  0  0  0  0  0  0  0  0
   -2.0633    2.1859    0.2347 C   0  0  0  0  0  0  0  0  0  0  0  0
   -1.1703    1.2326    0.5319 C   0  0  0  0  0  0  0  0  0  0  0  0
   -1.1253   -0.0763    1.1812 C   0  0  0  0  0  0  0  0  0  0  0  0
   -2.2144   -0.6903    1.7653 N   0  0  0  0  0  0  0  0  0  0  0  0
   -3.4997   -0.6953    1.1753 C   0  0  0  0  0  0  0  0  0  0  0  0
   -4.5771   -0.2863    1.9769 C   0  0  0  0  0  0  0  0  0  0  0  0
   -5.8816   -0.2916    1.4848 C   0  0  0  0  0  0  0  0  0  0  0  0
   -6.1279   -0.7292    0.1886 C   0  0  0  0  0  0  0  0  0  0  0  0
   -5.0735   -1.1803   -0.6054 C   0  0  0  0  0  0  0  0  0  0  0  0
   -3.7555   -1.1957   -0.1168 C   0  0  0  0  0  0  0  0  0  0  0  0
   -2.6667   -1.7306   -1.0075 C   0  0  0  0  0  0  0  0  0  0  0  0
    0.0190   -0.7015    1.2301 N   0  0  0  0  0  0  0  0  0  0  0  0
    1.1255   -0.1234    0.6469 C   0  0  0  0  0  0  0  0  0  0  0  0
    2.1688   -0.8758    0.6683 N   0  0  0  0  0  0  0  0  0  0  0  0
    3.3957   -0.3492    0.0766 C   0  0  0  0  0  0  0  0  0  0  0  0
    4.4856   -1.4115    0.2206 C   0  0  0  0  0  0  0  0  0  0  0  0
    5.8096   -0.9380   -0.3767 C   0  0  0  0  0  0  0  0  0  0  0  0
    6.8943   -1.9937   -0.2341 C   0  0  0  0  0  0  0  0  0  0  0  0
    1.1991    1.1262    0.0729 N   0  0  0  0  0  0  0  0  0  0  0  0
    0.0995    1.7946    0.0243 C   0  0  0  0  0  0  0  0  0  0  0  0
   -0.1265    3.0754   -0.4816 N   0  0  0  0  0  0  0  0  0  0  0  0
    0.6289    3.5746   -1.6144 C   0  0  0  0  0  0  0  0  0  0  0  0
   -1.8301    4.1683   -0.1144 H   0  0  0  0  0  0  0  0  0  0  0  0
   -3.1189    2.2017    0.4657 H   0  0  0  0  0  0  0  0  0  0  0  0
   -1.9607   -1.6325    2.0566 H   0  0  0  0  0  0  0  0  0  0  0  0
   -4.3943    0.0558    2.9935 H   0  0  0  0  0  0  0  0  0  0  0  0
   -6.7023    0.0428    2.1138 H   0  0  0  0  0  0  0  0  0  0  0  0
   -7.1426   -0.7340   -0.2017 H   0  0  0  0  0  0  0  0  0  0  0  0
   -5.2893   -1.5375   -1.6107 H   0  0  0  0  0  0  0  0  0  0  0  0
   -1.9787   -2.3692   -0.4445 H   0  0  0  0  0  0  0  0  0  0  0  0
   -3.0817   -2.3500   -1.8103 H   0  0  0  0  0  0  0  0  0  0  0  0
   -2.1129   -0.9076   -1.4683 H   0  0  0  0  0  0  0  0  0  0  0  0
    3.7134    0.5654    0.5922 H   0  0  0  0  0  0  0  0  0  0  0  0
    3.2485   -0.1260   -0.9872 H   0  0  0  0  0  0  0  0  0  0  0  0
    4.1641   -2.3364   -0.2746 H   0  0  0  0  0  0  0  0  0  0  0  0
    4.6226   -1.6549    1.2818 H   0  0  0  0  0  0  0  0  0  0  0  0
    5.6757   -0.7013   -1.4387 H   0  0  0  0  0  0  0  0  0  0  0  0
    6.1356   -0.0180    0.1222 H   0  0  0  0  0  0  0  0  0  0  0  0
    6.6132   -2.9172   -0.7504 H   0  0  0  0  0  0  0  0  0  0  0  0
    7.0757   -2.2301    0.8192 H   0  0  0  0  0  0  0  0  0  0  0  0
    7.8326   -1.6342   -0.6680 H   0  0  0  0  0  0  0  0  0  0  0  0
    1.7039    3.5178   -1.4159 H   0  0  0  0  0  0  0  0  0  0  0  0
    0.3794    4.6233   -1.8060 H   0  0  0  0  0  0  0  0  0  0  0  0
    0.4075    2.9939   -2.5160 H   0  0  0  0  0  0  0  0  0  0  0  0
  1  2  1  0
  2  3  2  0
  3  4  1  0
  4  5  1  0
  5  6  1  0
  6  7  2  0
  7  8  1  0
  8  9  2  0
  9 10  1  0
 10 11  2  0
 11 12  1  0
  4 13  2  0
 13 14  1  0
 14 15  2  3
 15 16  1  0
 16 17  1  0
 17 18  1  0
 18 19  1  0
 14 20  1  0
 20 21  2  0
 21 22  1  0
 22 23  1  0
 22  1  1  0
 21  3  1  0
 11  6  1  0
  1 24  1  0
  2 25  1  0
  5 26  1  0
  7 27  1  0
  8 28  1  0
  9 29  1  0
 10 30  1  0
 12 31  1  0
 12 32  1  0
 12 33  1  0
 16 34  1  0
 16 35  1  0
 17 36  1  0
 17 37  1  0
 18 38  1  0
 18 39  1  0
 19 40  1  0
 19 41  1  0
 19 42  1  0
 23 43  1  0
 23 44  1  0
 23 45  1  0
M  END
>  <ScrubInfo>  (7) 
{"isomerGroup": 0, "isomerId": 6, "confId": 0, "nr_conformers:": 1, "nr_isomers:": 9}

$$$$
_i7
     RDKit          3D

 45 47  0  0  0  0  0  0  0  0999 V2000
    1.5245    2.7580   -0.5939 N   0  0  0  0  0  0  0  0  0  0  0  0
    2.1141    1.5717   -0.1719 C   0  0  0  0  0  0  0  0  0  0  0  0
    1.2291    0.6281    0.1792 C   0  0  0  0  0  0  0  0  0  0  0  0
    1.1892   -0.7722    0.6454 C   0  0  0  0  0  0  0  0  0  0  0  0
    2.1727   -1.5757    0.9251 N   0  0  0  0  0  0  0  0  0  0  0  0
    3.5015   -1.1483    0.8112 C   0  0  0  0  0  0  0  0  0  0  0  0
    4.1231   -0.5569    1.9179 C   0  0  0  0  0  0  0  0  0  0  0  0
    5.4482   -0.1276    1.8459 C   0  0  0  0  0  0  0  0  0  0  0  0
    6.1676   -0.2989    0.6665 C   0  0  0  0  0  0  0  0  0  0  0  0
    5.5674   -0.9104   -0.4351 C   0  0  0  0  0  0  0  0  0  0  0  0
    4.2372   -1.3539   -0.3697 C   0  0  0  0  0  0  0  0  0  0  0  0
    3.6104   -2.0198   -1.5618 C   0  0  0  0  0  0  0  0  0  0  0  0
   -0.0918   -1.2345    0.7776 N   0  0  0  0  0  0  0  0  0  0  0  0
   -1.2511   -0.5519    0.5425 C   0  0  0  0  0  0  0  0  0  0  0  0
   -2.3738   -1.1743    0.6999 N   0  0  0  0  0  0  0  0  0  0  0  0
   -3.5994   -0.4141    0.4442 C   0  0  0  0  0  0  0  0  0  0  0  0
   -4.7899   -1.3404    0.6961 C   0  0  0  0  0  0  0  0  0  0  0  0
   -6.1431   -0.6370    0.5805 C   0  0  0  0  0  0  0  0  0  0  0  0
   -6.4490   -0.1367   -0.8227 C   0  0  0  0  0  0  0  0  0  0  0  0
   -1.2425    0.7704    0.1509 N   0  0  0  0  0  0  0  0  0  0  0  0
   -0.0867    1.3369   -0.0074 C   0  0  0  0  0  0  0  0  0  0  0  0
    0.1572    2.6615   -0.3792 N   0  0  0  0  0  0  0  0  0  0  0  0
   -0.7483    3.3671   -1.2658 C   0  0  0  0  0  0  0  0  0  0  0  0
    1.9825    3.5925   -0.2206 H   0  0  0  0  0  0  0  0  0  0  0  0
    3.1926    1.5121   -0.1651 H   0  0  0  0  0  0  0  0  0  0  0  0
    3.5656   -0.4347    2.8429 H   0  0  0  0  0  0  0  0  0  0  0  0
    5.9185    0.3312    2.7115 H   0  0  0  0  0  0  0  0  0  0  0  0
    7.2020    0.0306    0.6075 H   0  0  0  0  0  0  0  0  0  0  0  0
    6.1482   -1.0501   -1.3443 H   0  0  0  0  0  0  0  0  0  0  0  0
    2.8565   -1.3642   -2.0085 H   0  0  0  0  0  0  0  0  0  0  0  0
    3.1436   -2.9669   -1.2725 H   0  0  0  0  0  0  0  0  0  0  0  0
    4.3569   -2.2481   -2.3300 H   0  0  0  0  0  0  0  0  0  0  0  0
   -0.2046   -2.1918    1.0749 H   0  0  0  0  0  0  0  0  0  0  0  0
   -3.6647    0.4493    1.1172 H   0  0  0  0  0  0  0  0  0  0  0  0
   -3.6175   -0.0634   -0.5938 H   0  0  0  0  0  0  0  0  0  0  0  0
   -4.7513   -2.1888    0.0013 H   0  0  0  0  0  0  0  0  0  0  0  0
   -4.7059   -1.7656    1.7045 H   0  0  0  0  0  0  0  0  0  0  0  0
   -6.1889    0.2019    1.2847 H   0  0  0  0  0  0  0  0  0  0  0  0
   -6.9279   -1.3429    0.8775 H   0  0  0  0  0  0  0  0  0  0  0  0
   -7.4651    0.2686   -0.8635 H   0  0  0  0  0  0  0  0  0  0  0  0
   -6.3786   -0.9484   -1.5536 H   0  0  0  0  0  0  0  0  0  0  0  0
   -5.7628    0.6607   -1.1228 H   0  0  0  0  0  0  0  0  0  0  0  0
   -1.7672    3.3559   -0.8657 H   0  0  0  0  0  0  0  0  0  0  0  0
   -0.4422    4.4133   -1.3689 H   0  0  0  0  0  0  0  0  0  0  0  0
   -0.7564    2.9075   -2.2596 H   0  0  0  0  0  0  0  0  0  0  0  0
  1  2  1  0
  2  3  2  0
  3  4  1  0
  4  5  2  3
  5  6  1  0
  6  7  2  0
  7  8  1  0
  8  9  2  0
  9 10  1  0
 10 11  2  0
 11 12  1  0
  4 13  1  0
 13 14  1  0
 14 15  2  3
 15 16  1  0
 16 17  1  0
 17 18  1  0
 18 19  1  0
 14 20  1  0
 20 21  2  0
 21 22  1  0
 22 23  1  0
 22  1  1  0
 21  3  1  0
 11  6  1  0
  1 24  1  0
  2 25  1  0
  7 26  1  0
  8 27  1  0
  9 28  1  0
 10 29  1  0
 12 30  1  0
 12 31  1  0
 12 32  1  0
 13 33  1  0
 16 34  1  0
 16 35  1  0
 17 36  1  0
 17 37  1  0
 18 38  1  0
 18 39  1  0
 19 40  1  0
 19 41  1  0
 19 42  1  0
 23 43  1  0
 23 44  1  0
 23 45  1  0
M  END
>  <ScrubInfo>  (8) 
{"isomerGroup": 0, "isomerId": 7, "confId": 0, "nr_conformers:": 1, "nr_isomers:": 9}

$$$$
_i8
     RDKit          3D

 45 47  0  0  0  0  0  0  0  0999 V2000
    0.8518    2.0544    0.0753 N   0  0  0  0  0  0  0  0  0  0  0  0
    0.7314    0.6830   -0.1002 C   0  0  0  0  0  0  0  0  0  0  0  0
    1.6472   -0.1522   -0.4596 N   0  0  0  0  0  0  0  0  0  0  0  0
    2.9897    0.3560   -0.7218 C   0  0  0  0  0  0  0  0  0  0  0  0
    3.8984   -0.8090   -1.1154 C   0  0  0  0  0  0  0  0  0  0  0  0
    4.1437   -1.7776    0.0439 C   0  0  0  0  0  0  0  0  0  0  0  0
    5.0834   -2.9023   -0.3619 C   0  0  0  0  0  0  0  0  0  0  0  0
   -0.5376    0.1997    0.1504 N   0  0  0  0  0  0  0  0  0  0  0  0
   -1.6938    0.8454    0.5414 C   0  0  0  0  0  0  0  0  0  0  0  0
   -2.8835    0.3986    0.7746 N   0  0  0  0  0  0  0  0  0  0  0  0
   -3.1036   -0.9788    0.6226 C   0  0  0  0  0  0  0  0  0  0  0  0
   -2.9083   -1.8240    1.7214 C   0  0  0  0  0  0  0  0  0  0  0  0
   -3.0976   -3.2005    1.6032 C   0  0  0  0  0  0  0  0  0  0  0  0
   -3.4926   -3.7423    0.3833 C   0  0  0  0  0  0  0  0  0  0  0  0
   -3.7093   -2.9078   -0.7141 C   0  0  0  0  0  0  0  0  0  0  0  0
   -3.5306   -1.5203   -0.6028 C   0  0  0  0  0  0  0  0  0  0  0  0
   -3.7707   -0.6371   -1.7946 C   0  0  0  0  0  0  0  0  0  0  0  0
   -1.4617    2.2617    0.6947 C   0  0  0  0  0  0  0  0  0  0  0  0
   -2.2495    3.3622    1.0612 C   0  0  0  0  0  0  0  0  0  0  0  0
   -1.5535    4.5096    1.0564 N   0  0  0  0  0  0  0  0  0  0  0  0
   -0.3073    4.1324    0.6795 N   0  0  0  0  0  0  0  0  0  0  0  0
    0.7184    5.1385    0.5709 C   0  0  0  0  0  0  0  0  0  0  0  0
   -0.2169    2.7916    0.4567 C   0  0  0  0  0  0  0  0  0  0  0  0
    1.7604    2.4619   -0.0954 H   0  0  0  0  0  0  0  0  0  0  0  0
    3.3992    0.8597    0.1618 H   0  0  0  0  0  0  0  0  0  0  0  0
    2.9644    1.0721   -1.5518 H   0  0  0  0  0  0  0  0  0  0  0  0
    3.4594   -1.3513   -1.9620 H   0  0  0  0  0  0  0  0  0  0  0  0
    4.8593   -0.4035   -1.4548 H   0  0  0  0  0  0  0  0  0  0  0  0
    4.5762   -1.2377    0.8943 H   0  0  0  0  0  0  0  0  0  0  0  0
    3.1962   -2.2115    0.3830 H   0  0  0  0  0  0  0  0  0  0  0  0
    6.0561   -2.5080   -0.6730 H   0  0  0  0  0  0  0  0  0  0  0  0
    4.6659   -3.4820   -1.1913 H   0  0  0  0  0  0  0  0  0  0  0  0
    5.2463   -3.5824    0.4800 H   0  0  0  0  0  0  0  0  0  0  0  0
   -0.6136   -0.7987    0.0170 H   0  0  0  0  0  0  0  0  0  0  0  0
   -2.6064   -1.4010    2.6761 H   0  0  0  0  0  0  0  0  0  0  0  0
   -2.9407   -3.8466    2.4628 H   0  0  0  0  0  0  0  0  0  0  0  0
   -3.6418   -4.8150    0.2874 H   0  0  0  0  0  0  0  0  0  0  0  0
   -4.0272   -3.3467   -1.6574 H   0  0  0  0  0  0  0  0  0  0  0  0
   -4.2738   -1.1823   -2.6002 H   0  0  0  0  0  0  0  0  0  0  0  0
   -2.8193   -0.2605   -2.1831 H   0  0  0  0  0  0  0  0  0  0  0  0
   -4.4136    0.2074   -1.5255 H   0  0  0  0  0  0  0  0  0  0  0  0
   -3.2978    3.3776    1.3313 H   0  0  0  0  0  0  0  0  0  0  0  0
    0.3555    5.9340   -0.0852 H   0  0  0  0  0  0  0  0  0  0  0  0
    1.6269    4.7032    0.1502 H   0  0  0  0  0  0  0  0  0  0  0  0
    0.9210    5.5303    1.5707 H   0  0  0  0  0  0  0  0  0  0  0  0
  1  2  1  0
  2  3  2  3
  3  4  1  0
  4  5  1  0
  5  6  1  0
  6  7  1  0
  2  8  1  0
  8  9  1  0
  9 10  2  3
 10 11  1  0
 11 12  2  0
 12 13  1  0
 13 14  2  0
 14 15  1  0
 15 16  2  0
 16 17  1  0
  9 18  1  0
 18 19  1  0
 19 20  2  0
 20 21  1  0
 21 22  1  0
 21 23  1  0
 23  1  1  0
 16 11  1  0
 23 18  2  0
  1 24  1  0
  4 25  1  0
  4 26  1  0
  5 27  1  0
  5 28  1  0
  6 29  1  0
  6 30  1  0
  7 31  1  0
  7 32  1  0
  7 33  1  0
  8 34  1  0
 12 35  1  0
 13 36  1  0
 14 37  1  0
 15 38  1  0
 17 39  1  0
 17 40  1  0
 17 41  1  0
 19 42  1  0
 22 43  1  0
 22 44  1  0
 22 45  1  0
M  END
>  <ScrubInfo>  (9) 
{"isomerGroup": 0, "isomerId": 8, "confId": 0, "nr_conformers:": 1, "nr_isomers:": 9}

$$$$
