REMARK SMILES CCCCNc1nc(Nc2ccccc2Cl)c2cnn(C)c2n1
REMARK SMILES IDX 5 1 4 3 3 4 2 5 1 6 6 7 7 8 23 9 8 10 22 11 17 12 20 13
REMARK SMILES IDX 18 14 19 15 21 16 9 17 10 19 11 20 15 21 12 22 14 23 13 24
REMARK SMILES IDX 16 25
REMARK H PARENT 5 2 9 18
ROOT
ATOM      1  N   UNL     1       2.198  -0.192   0.955  1.00  0.00    -0.354 N 
ATOM      2  H   UNL     1       2.678  -1.083   0.895  1.00  0.00     0.163 HD
ENDROOT
BRANCH   1   3
ATOM      3  C   UNL     1       2.911   0.950   0.408  1.00  0.00     0.116 C 
BRANCH   3   4
ATOM      4  C   UNL     1       4.302   1.062   1.038  1.00  0.00     0.021 C 
BRANCH   4   5
ATOM      5  C   UNL     1       5.261  -0.034   0.567  1.00  0.00    -0.002 C 
ATOM      6  C   UNL     1       6.652   0.156   1.154  1.00  0.00     0.004 C 
ENDBRANCH   4   5
ENDBRANCH   3   4
ENDBRANCH   1   3
BRANCH   1   7
ATOM      7  C   UNL     1       0.941  -0.409   0.401  1.00  0.00     0.226 A 
ATOM      8  N   UNL     1       0.192   0.640   0.013  1.00  0.00    -0.195 NA
ATOM      9  N   UNL     1       0.588  -1.696   0.303  1.00  0.00    -0.193 NA
ATOM     10  C   UNL     1      -1.042   0.448  -0.519  1.00  0.00     0.147 A 
ATOM     11  C   UNL     1      -0.634  -1.863  -0.224  1.00  0.00     0.165 A 
ATOM     12  C   UNL     1      -1.494  -0.868  -0.652  1.00  0.00     0.082 A 
ATOM     13  N   UNL     1      -1.282  -3.047  -0.445  1.00  0.00    -0.250 N 
ATOM     14  C   UNL     1      -2.627  -1.570  -1.114  1.00  0.00     0.149 A 
ATOM     15  N   UNL     1      -2.506  -2.898  -0.999  1.00  0.00    -0.179 NA
ATOM     16  C   UNL     1      -0.795  -4.371  -0.151  1.00  0.00     0.176 C 
BRANCH  10  17
ATOM     17  N   UNL     1      -1.737   1.623  -0.885  1.00  0.00    -0.338 N 
ATOM     18  H   UNL     1      -1.284   2.338  -0.313  1.00  0.00     0.168 HD
BRANCH  17  19
ATOM     19  C   UNL     1      -3.143   1.770  -0.841  1.00  0.00     0.058 A 
ATOM     20  C   UNL     1      -3.877   1.583  -2.021  1.00  0.00     0.027 A 
ATOM     21  C   UNL     1      -3.840   2.044   0.349  1.00  0.00     0.064 A 
ATOM     22  C   UNL     1      -5.271   1.673  -2.017  1.00  0.00     0.002 A 
ATOM     23  C   UNL     1      -5.234   2.134   0.353  1.00  0.00     0.023 A 
ATOM     24  C   UNL     1      -5.949   1.947  -0.830  1.00  0.00     0.002 A 
ATOM     25  Cl  UNL     1      -2.999   2.297   1.838  1.00  0.00    -0.082 Cl
ENDBRANCH  17  19
ENDBRANCH  10  17
ENDBRANCH   1   7
TORSDOF 6
