_i0
     RDKit          3D

 42 44  0  0  0  0  0  0  0  0999 V2000
    6.6515    0.1557    1.1543 C   0  0  0  0  0  0  0  0  0  0  0  0
    5.2615   -0.0341    0.5666 C   0  0  0  0  0  0  0  0  0  0  0  0
    4.3024    1.0621    1.0380 C   0  0  0  0  0  0  0  0  0  0  0  0
    2.9108    0.9498    0.4083 C   0  0  0  0  0  0  0  0  0  0  0  0
    2.1981   -0.1917    0.9550 N   0  0  0  0  0  0  0  0  0  0  0  0
    0.9406   -0.4094    0.4014 C   0  0  0  0  0  0  0  0  0  0  0  0
    0.1917    0.6397    0.0133 N   0  0  0  0  0  0  0  0  0  0  0  0
   -1.0422    0.4477   -0.5192 C   0  0  0  0  0  0  0  0  0  0  0  0
   -1.7367    1.6225   -0.8855 N   0  0  0  0  0  0  0  0  0  0  0  0
   -3.1429    1.7705   -0.8408 C   0  0  0  0  0  0  0  0  0  0  0  0
   -3.8768    1.5827   -2.0206 C   0  0  0  0  0  0  0  0  0  0  0  0
   -5.2705    1.6731   -2.0165 C   0  0  0  0  0  0  0  0  0  0  0  0
   -5.9485    1.9468   -0.8301 C   0  0  0  0  0  0  0  0  0  0  0  0
   -5.2342    2.1336    0.3534 C   0  0  0  0  0  0  0  0  0  0  0  0
   -3.8397    2.0444    0.3495 C   0  0  0  0  0  0  0  0  0  0  0  0
   -2.9986    2.2966    1.8378 Cl  0  0  0  0  0  0  0  0  0  0  0  0
   -1.4936   -0.8684   -0.6523 C   0  0  0  0  0  0  0  0  0  0  0  0
   -2.6268   -1.5699   -1.1143 C   0  0  0  0  0  0  0  0  0  0  0  0
   -2.5064   -2.8981   -0.9986 N   0  0  0  0  0  0  0  0  0  0  0  0
   -1.2822   -3.0474   -0.4447 N   0  0  0  0  0  0  0  0  0  0  0  0
   -0.7947   -4.3712   -0.1506 C   0  0  0  0  0  0  0  0  0  0  0  0
   -0.6342   -1.8631   -0.2243 C   0  0  0  0  0  0  0  0  0  0  0  0
    0.5879   -1.6959    0.3028 N   0  0  0  0  0  0  0  0  0  0  0  0
    6.6228    0.1203    2.2480 H   0  0  0  0  0  0  0  0  0  0  0  0
    7.3215   -0.6367    0.8061 H   0  0  0  0  0  0  0  0  0  0  0  0
    7.0777    1.1176    0.8521 H   0  0  0  0  0  0  0  0  0  0  0  0
    5.3302   -0.0230   -0.5274 H   0  0  0  0  0  0  0  0  0  0  0  0
    4.8877   -1.0213    0.8587 H   0  0  0  0  0  0  0  0  0  0  0  0
    4.2211    1.0377    2.1318 H   0  0  0  0  0  0  0  0  0  0  0  0
    4.7235    2.0389    0.7694 H   0  0  0  0  0  0  0  0  0  0  0  0
    2.3667    1.8749    0.6364 H   0  0  0  0  0  0  0  0  0  0  0  0
    3.0021    0.8703   -0.6823 H   0  0  0  0  0  0  0  0  0  0  0  0
    2.6777   -1.0828    0.8949 H   0  0  0  0  0  0  0  0  0  0  0  0
   -1.2839    2.3384   -0.3131 H   0  0  0  0  0  0  0  0  0  0  0  0
   -3.3565    1.3677   -2.9517 H   0  0  0  0  0  0  0  0  0  0  0  0
   -5.8259    1.5284   -2.9402 H   0  0  0  0  0  0  0  0  0  0  0  0
   -7.0338    2.0160   -0.8269 H   0  0  0  0  0  0  0  0  0  0  0  0
   -5.7687    2.3481    1.2753 H   0  0  0  0  0  0  0  0  0  0  0  0
   -3.5421   -1.1750   -1.5324 H   0  0  0  0  0  0  0  0  0  0  0  0
   -1.4893   -4.8466    0.5465 H   0  0  0  0  0  0  0  0  0  0  0  0
    0.1990   -4.3140    0.2991 H   0  0  0  0  0  0  0  0  0  0  0  0
   -0.7461   -4.9350   -1.0857 H   0  0  0  0  0  0  0  0  0  0  0  0
  1  2  1  0
  2  3  1  0
  3  4  1  0
  4  5  1  0
  5  6  1  0
  6  7  2  0
  7  8  1  0
  8  9  1  0
  9 10  1  0
 10 11  2  0
 11 12  1  0
 12 13  2  0
 13 14  1  0
 14 15  2  0
 15 16  1  0
  8 17  2  0
 17 18  1  0
 18 19  2  0
 19 20  1  0
 20 21  1  0
 20 22  1  0
 22 23  2  0
 23  6  1  0
 15 10  1  0
 22 17  1  0
  1 24  1  0
  1 25  1  0
  1 26  1  0
  2 27  1  0
  2 28  1  0
  3 29  1  0
  3 30  1  0
  4 31  1  0
  4 32  1  0
  5 33  1  0
  9 34  1  0
 11 35  1  0
 12 36  1  0
 13 37  1  0
 14 38  1  0
 18 39  1  0
 21 40  1  0
 21 41  1  0
 21 42  1  0
M  END
>  <ScrubInfo>  (1) 
{"isomerGroup": 0, "isomerId": 0, "confId": 0, "nr_conformers:": 1, "nr_isomers:": 9}

$$$$
_i1
     RDKit          3D

 42 44  0  0  0  0  0  0  0  0999 V2000
   -0.3308    0.0897   -0.3838 N   0  0  0  0  0  0  0  0  0  0  0  0
    0.8501   -0.4549    0.0851 C   0  0  0  0  0  0  0  0  0  0  0  0
    1.6652   -1.1957   -0.7450 N   0  0  0  0  0  0  0  0  0  0  0  0
    3.0228   -0.9459   -1.0771 C   0  0  0  0  0  0  0  0  0  0  0  0
    3.7551    0.1211   -0.5359 C   0  0  0  0  0  0  0  0  0  0  0  0
    5.1101    0.2950   -0.8398 C   0  0  0  0  0  0  0  0  0  0  0  0
    5.7628   -0.6000   -1.6834 C   0  0  0  0  0  0  0  0  0  0  0  0
    5.0614   -1.6718   -2.2289 C   0  0  0  0  0  0  0  0  0  0  0  0
    3.7080   -1.8439   -1.9250 C   0  0  0  0  0  0  0  0  0  0  0  0
    2.8796   -3.1886   -2.6366 Cl  0  0  0  0  0  0  0  0  0  0  0  0
    1.0853   -0.2789    1.3903 C   0  0  0  0  0  0  0  0  0  0  0  0
    2.0798   -0.6984    2.3833 C   0  0  0  0  0  0  0  0  0  0  0  0
    1.8206   -0.2513    3.5866 N   0  0  0  0  0  0  0  0  0  0  0  0
    0.6568    0.5267    3.4531 N   0  0  0  0  0  0  0  0  0  0  0  0
   -0.0830    0.8843    4.6397 C   0  0  0  0  0  0  0  0  0  0  0  0
    0.1159    0.5074    2.1771 C   0  0  0  0  0  0  0  0  0  0  0  0
   -0.9745    1.0206    1.7223 N   0  0  0  0  0  0  0  0  0  0  0  0
   -1.2183    0.8162    0.3813 C   0  0  0  0  0  0  0  0  0  0  0  0
   -2.3106    1.3585   -0.0188 N   0  0  0  0  0  0  0  0  0  0  0  0
   -2.7415    1.2712   -1.4060 C   0  0  0  0  0  0  0  0  0  0  0  0
   -3.5139   -0.0231   -1.6623 C   0  0  0  0  0  0  0  0  0  0  0  0
   -4.7602   -0.2130   -0.7920 C   0  0  0  0  0  0  0  0  0  0  0  0
   -5.8192    0.8577   -1.0033 C   0  0  0  0  0  0  0  0  0  0  0  0
   -0.5155   -0.0104   -1.3669 H   0  0  0  0  0  0  0  0  0  0  0  0
    1.1807   -1.6372   -1.5241 H   0  0  0  0  0  0  0  0  0  0  0  0
    3.2863    0.8557    0.1132 H   0  0  0  0  0  0  0  0  0  0  0  0
    5.6552    1.1355   -0.4148 H   0  0  0  0  0  0  0  0  0  0  0  0
    6.8160   -0.4615   -1.9159 H   0  0  0  0  0  0  0  0  0  0  0  0
    5.5722   -2.3700   -2.8869 H   0  0  0  0  0  0  0  0  0  0  0  0
    2.9250   -1.3413    2.1064 H   0  0  0  0  0  0  0  0  0  0  0  0
   -0.7437    0.0645    4.9385 H   0  0  0  0  0  0  0  0  0  0  0  0
   -0.6914    1.7775    4.4659 H   0  0  0  0  0  0  0  0  0  0  0  0
    0.5977    1.1009    5.4694 H   0  0  0  0  0  0  0  0  0  0  0  0
   -1.8989    1.3533   -2.1023 H   0  0  0  0  0  0  0  0  0  0  0  0
   -3.3754    2.1373   -1.6250 H   0  0  0  0  0  0  0  0  0  0  0  0
   -2.8508   -0.8815   -1.5002 H   0  0  0  0  0  0  0  0  0  0  0  0
   -3.8070   -0.0526   -2.7189 H   0  0  0  0  0  0  0  0  0  0  0  0
   -5.2004   -1.1889   -1.0300 H   0  0  0  0  0  0  0  0  0  0  0  0
   -4.4824   -0.2470    0.2675 H   0  0  0  0  0  0  0  0  0  0  0  0
   -6.0943    0.9359   -2.0598 H   0  0  0  0  0  0  0  0  0  0  0  0
   -6.7220    0.6097   -0.4358 H   0  0  0  0  0  0  0  0  0  0  0  0
   -5.4729    1.8373   -0.6611 H   0  0  0  0  0  0  0  0  0  0  0  0
  1  2  1  0
  2  3  1  0
  3  4  1  0
  4  5  2  0
  5  6  1  0
  6  7  2  0
  7  8  1  0
  8  9  2  0
  9 10  1  0
  2 11  2  0
 11 12  1  0
 12 13  2  0
 13 14  1  0
 14 15  1  0
 14 16  1  0
 16 17  2  0
 17 18  1  0
 18 19  2  3
 19 20  1  0
 20 21  1  0
 21 22  1  0
 22 23  1  0
 18  1  1  0
  9  4  1  0
 16 11  1  0
  1 24  1  0
  3 25  1  0
  5 26  1  0
  6 27  1  0
  7 28  1  0
  8 29  1  0
 12 30  1  0
 15 31  1  0
 15 32  1  0
 15 33  1  0
 20 34  1  0
 20 35  1  0
 21 36  1  0
 21 37  1  0
 22 38  1  0
 22 39  1  0
 23 40  1  0
 23 41  1  0
 23 42  1  0
M  END
>  <ScrubInfo>  (2) 
{"isomerGroup": 0, "isomerId": 1, "confId": 0, "nr_conformers:": 1, "nr_isomers:": 9}

$$$$
_i2
     RDKit          3D

 42 44  0  0  0  0  0  0  0  0999 V2000
    0.5664    0.5849    0.0846 N   0  0  0  0  0  0  0  0  0  0  0  0
   -0.4716    1.4532    0.3331 C   0  0  0  0  0  0  0  0  0  0  0  0
   -1.6244    0.8863    0.8014 N   0  0  0  0  0  0  0  0  0  0  0  0
   -2.2565   -0.2439    0.1316 C   0  0  0  0  0  0  0  0  0  0  0  0
   -3.5149   -0.6524    0.8979 C   0  0  0  0  0  0  0  0  0  0  0  0
   -4.3030   -1.7724    0.2162 C   0  0  0  0  0  0  0  0  0  0  0  0
   -3.5548   -3.0955    0.1623 C   0  0  0  0  0  0  0  0  0  0  0  0
   -0.4119    2.7510    0.1629 N   0  0  0  0  0  0  0  0  0  0  0  0
    0.8100    3.1331   -0.3060 C   0  0  0  0  0  0  0  0  0  0  0  0
    1.9047    2.3361   -0.5797 C   0  0  0  0  0  0  0  0  0  0  0  0
    2.8993    3.2140   -1.0311 C   0  0  0  0  0  0  0  0  0  0  0  0
    2.4785    4.4859   -1.0574 N   0  0  0  0  0  0  0  0  0  0  0  0
    1.2031    4.4091   -0.6008 N   0  0  0  0  0  0  0  0  0  0  0  0
    0.4243    5.6150   -0.4773 C   0  0  0  0  0  0  0  0  0  0  0  0
    1.8280    0.9136   -0.3634 C   0  0  0  0  0  0  0  0  0  0  0  0
    2.8739    0.1938   -0.5980 N   0  0  0  0  0  0  0  0  0  0  0  0
    2.7873   -1.1941   -0.3884 C   0  0  0  0  0  0  0  0  0  0  0  0
    2.5849   -2.0195   -1.5011 C   0  0  0  0  0  0  0  0  0  0  0  0
    2.4976   -3.4061   -1.3581 C   0  0  0  0  0  0  0  0  0  0  0  0
    2.6224   -3.9859   -0.0972 C   0  0  0  0  0  0  0  0  0  0  0  0
    2.8398   -3.1801    1.0206 C   0  0  0  0  0  0  0  0  0  0  0  0
    2.9277   -1.7921    0.8764 C   0  0  0  0  0  0  0  0  0  0  0  0
    3.1853   -0.8419    2.2965 Cl  0  0  0  0  0  0  0  0  0  0  0  0
    0.4507   -0.3502    0.4349 H   0  0  0  0  0  0  0  0  0  0  0  0
   -2.2948    1.6361    0.9659 H   0  0  0  0  0  0  0  0  0  0  0  0
   -1.5614   -1.0877    0.0845 H   0  0  0  0  0  0  0  0  0  0  0  0
   -2.5162    0.0400   -0.8947 H   0  0  0  0  0  0  0  0  0  0  0  0
   -4.1746    0.2188    1.0006 H   0  0  0  0  0  0  0  0  0  0  0  0
   -3.2456   -0.9559    1.9175 H   0  0  0  0  0  0  0  0  0  0  0  0
   -5.2384   -1.9240    0.7681 H   0  0  0  0  0  0  0  0  0  0  0  0
   -4.5805   -1.4685   -0.7998 H   0  0  0  0  0  0  0  0  0  0  0  0
   -3.2345   -3.4072    1.1614 H   0  0  0  0  0  0  0  0  0  0  0  0
   -2.6722   -3.0320   -0.4808 H   0  0  0  0  0  0  0  0  0  0  0  0
   -4.2043   -3.8775   -0.2444 H   0  0  0  0  0  0  0  0  0  0  0  0
    3.9098    2.9829   -1.3420 H   0  0  0  0  0  0  0  0  0  0  0  0
    0.9434    6.2911    0.2068 H   0  0  0  0  0  0  0  0  0  0  0  0
   -0.5683    5.3833   -0.0850 H   0  0  0  0  0  0  0  0  0  0  0  0
    0.3344    6.0687   -1.4675 H   0  0  0  0  0  0  0  0  0  0  0  0
    2.5027   -1.5730   -2.4896 H   0  0  0  0  0  0  0  0  0  0  0  0
    2.3437   -4.0324   -2.2338 H   0  0  0  0  0  0  0  0  0  0  0  0
    2.5625   -5.0661    0.0141 H   0  0  0  0  0  0  0  0  0  0  0  0
    2.9476   -3.6384    2.0006 H   0  0  0  0  0  0  0  0  0  0  0  0
  1  2  1  0
  2  3  1  0
  3  4  1  0
  4  5  1  0
  5  6  1  0
  6  7  1  0
  2  8  2  0
  8  9  1  0
  9 10  2  0
 10 11  1  0
 11 12  2  0
 12 13  1  0
 13 14  1  0
 10 15  1  0
 15 16  2  3
 16 17  1  0
 17 18  2  0
 18 19  1  0
 19 20  2  0
 20 21  1  0
 21 22  2  0
 22 23  1  0
 15  1  1  0
 22 17  1  0
 13  9  1  0
  1 24  1  0
  3 25  1  0
  4 26  1  0
  4 27  1  0
  5 28  1  0
  5 29  1  0
  6 30  1  0
  6 31  1  0
  7 32  1  0
  7 33  1  0
  7 34  1  0
 11 35  1  0
 14 36  1  0
 14 37  1  0
 14 38  1  0
 18 39  1  0
 19 40  1  0
 20 41  1  0
 21 42  1  0
M  END
>  <ScrubInfo>  (3) 
{"isomerGroup": 0, "isomerId": 2, "confId": 0, "nr_conformers:": 1, "nr_isomers:": 9}

$$$$
_i3
     RDKit          3D

 42 44  0  0  0  0  0  0  0  0999 V2000
    1.0983   -1.7535   -0.1285 N   0  0  0  0  0  0  0  0  0  0  0  0
    0.8029   -0.4677    0.2908 C   0  0  0  0  0  0  0  0  0  0  0  0
    1.6352    0.3819    0.7798 N   0  0  0  0  0  0  0  0  0  0  0  0
    3.0357    0.0152    0.9248 C   0  0  0  0  0  0  0  0  0  0  0  0
    3.8092    1.2016    1.5026 C   0  0  0  0  0  0  0  0  0  0  0  0
    3.8044    2.4599    0.6285 C   0  0  0  0  0  0  0  0  0  0  0  0
    4.4604    2.2607   -0.7289 C   0  0  0  0  0  0  0  0  0  0  0  0
   -0.4864    0.0299    0.2105 N   0  0  0  0  0  0  0  0  0  0  0  0
   -1.4569   -0.6946   -0.2616 C   0  0  0  0  0  0  0  0  0  0  0  0
   -2.7761   -0.3480   -0.4054 N   0  0  0  0  0  0  0  0  0  0  0  0
   -3.4318    0.8639   -0.0905 C   0  0  0  0  0  0  0  0  0  0  0  0
   -2.7843    1.9783    0.4562 C   0  0  0  0  0  0  0  0  0  0  0  0
   -3.4854    3.1552    0.7489 C   0  0  0  0  0  0  0  0  0  0  0  0
   -4.8520    3.2432    0.5006 C   0  0  0  0  0  0  0  0  0  0  0  0
   -5.5233    2.1522   -0.0423 C   0  0  0  0  0  0  0  0  0  0  0  0
   -4.8195    0.9795   -0.3329 C   0  0  0  0  0  0  0  0  0  0  0  0
   -5.7034   -0.3512   -1.0086 Cl  0  0  0  0  0  0  0  0  0  0  0  0
   -1.1803   -2.0475   -0.7101 C   0  0  0  0  0  0  0  0  0  0  0  0
   -1.8904   -3.1281   -1.2608 C   0  0  0  0  0  0  0  0  0  0  0  0
   -1.1061   -4.1910   -1.4953 N   0  0  0  0  0  0  0  0  0  0  0  0
    0.1213   -3.7849   -1.0894 N   0  0  0  0  0  0  0  0  0  0  0  0
    1.2319   -4.6960   -1.2000 C   0  0  0  0  0  0  0  0  0  0  0  0
    0.1036   -2.5113   -0.6175 C   0  0  0  0  0  0  0  0  0  0  0  0
    2.0541   -2.0616   -0.0408 H   0  0  0  0  0  0  0  0  0  0  0  0
    3.1334   -0.8282    1.6190 H   0  0  0  0  0  0  0  0  0  0  0  0
    3.4694   -0.2843   -0.0355 H   0  0  0  0  0  0  0  0  0  0  0  0
    3.3857    1.4618    2.4809 H   0  0  0  0  0  0  0  0  0  0  0  0
    4.8464    0.8928    1.6813 H   0  0  0  0  0  0  0  0  0  0  0  0
    4.3434    3.2517    1.1626 H   0  0  0  0  0  0  0  0  0  0  0  0
    2.7793    2.8211    0.4877 H   0  0  0  0  0  0  0  0  0  0  0  0
    5.4759    1.8670   -0.6213 H   0  0  0  0  0  0  0  0  0  0  0  0
    4.5221    3.2164   -1.2596 H   0  0  0  0  0  0  0  0  0  0  0  0
    3.8852    1.5724   -1.3551 H   0  0  0  0  0  0  0  0  0  0  0  0
   -3.4160   -1.0312   -0.7919 H   0  0  0  0  0  0  0  0  0  0  0  0
   -1.7189    1.9653    0.6703 H   0  0  0  0  0  0  0  0  0  0  0  0
   -2.9523    4.0034    1.1732 H   0  0  0  0  0  0  0  0  0  0  0  0
   -5.3901    4.1594    0.7300 H   0  0  0  0  0  0  0  0  0  0  0  0
   -6.5902    2.2189   -0.2369 H   0  0  0  0  0  0  0  0  0  0  0  0
   -2.9413   -3.2042   -1.5069 H   0  0  0  0  0  0  0  0  0  0  0  0
    1.0129   -5.5806   -0.5966 H   0  0  0  0  0  0  0  0  0  0  0  0
    2.1445   -4.2181   -0.8381 H   0  0  0  0  0  0  0  0  0  0  0  0
    1.3496   -4.9697   -2.2516 H   0  0  0  0  0  0  0  0  0  0  0  0
  1  2  1  0
  2  3  2  3
  3  4  1  0
  4  5  1  0
  5  6  1  0
  6  7  1  0
  2  8  1  0
  8  9  2  0
  9 10  1  0
 10 11  1  0
 11 12  2  0
 12 13  1  0
 13 14  2  0
 14 15  1  0
 15 16  2  0
 16 17  1  0
  9 18  1  0
 18 19  1  0
 19 20  2  0
 20 21  1  0
 21 22  1  0
 21 23  1  0
 23  1  1  0
 16 11  1  0
 23 18  2  0
  1 24  1  0
  4 25  1  0
  4 26  1  0
  5 27  1  0
  5 28  1  0
  6 29  1  0
  6 30  1  0
  7 31  1  0
  7 32  1  0
  7 33  1  0
 10 34  1  0
 12 35  1  0
 13 36  1  0
 14 37  1  0
 15 38  1  0
 19 39  1  0
 22 40  1  0
 22 41  1  0
 22 42  1  0
M  END
>  <ScrubInfo>  (4) 
{"isomerGroup": 0, "isomerId": 3, "confId": 0, "nr_conformers:": 1, "nr_isomers:": 9}

$$$$
_i4
     RDKit          3D

 42 44  0  0  0  0  0  0  0  0999 V2000
   -1.9886   -2.7462   -0.3500 N   0  0  0  0  0  0  0  0  0  0  0  0
   -2.4053   -1.4196   -0.3088 C   0  0  0  0  0  0  0  0  0  0  0  0
   -1.4047   -0.5494   -0.1019 C   0  0  0  0  0  0  0  0  0  0  0  0
   -1.2027    0.8841    0.0693 C   0  0  0  0  0  0  0  0  0  0  0  0
   -2.0429    1.8644    0.0399 N   0  0  0  0  0  0  0  0  0  0  0  0
   -3.4101    1.6376   -0.1706 C   0  0  0  0  0  0  0  0  0  0  0  0
   -3.9157    1.7715   -1.4700 C   0  0  0  0  0  0  0  0  0  0  0  0
   -5.2746    1.5839   -1.7326 C   0  0  0  0  0  0  0  0  0  0  0  0
   -6.1488    1.2736   -0.6927 C   0  0  0  0  0  0  0  0  0  0  0  0
   -5.6660    1.1575    0.6111 C   0  0  0  0  0  0  0  0  0  0  0  0
   -4.3052    1.3456    0.8735 C   0  0  0  0  0  0  0  0  0  0  0  0
   -3.7615    1.1823    2.5061 Cl  0  0  0  0  0  0  0  0  0  0  0  0
    0.1000    1.2374    0.3009 N   0  0  0  0  0  0  0  0  0  0  0  0
    1.0754    0.3796    0.3521 C   0  0  0  0  0  0  0  0  0  0  0  0
    2.3127    0.8977    0.6016 N   0  0  0  0  0  0  0  0  0  0  0  0
    3.3902    0.1180    1.1679 C   0  0  0  0  0  0  0  0  0  0  0  0
    4.6795    0.9394    1.2225 C   0  0  0  0  0  0  0  0  0  0  0  0
    5.2116    1.3961   -0.1399 C   0  0  0  0  0  0  0  0  0  0  0  0
    5.5791    0.2473   -1.0662 C   0  0  0  0  0  0  0  0  0  0  0  0
    0.9542   -0.9722    0.1762 N   0  0  0  0  0  0  0  0  0  0  0  0
   -0.2230   -1.4321   -0.0655 C   0  0  0  0  0  0  0  0  0  0  0  0
   -0.6027   -2.7523   -0.3130 N   0  0  0  0  0  0  0  0  0  0  0  0
    0.0823   -3.8576    0.3287 C   0  0  0  0  0  0  0  0  0  0  0  0
   -2.4214   -3.2839   -1.1045 H   0  0  0  0  0  0  0  0  0  0  0  0
   -3.4568   -1.2140   -0.4411 H   0  0  0  0  0  0  0  0  0  0  0  0
   -3.2396    2.0341   -2.2805 H   0  0  0  0  0  0  0  0  0  0  0  0
   -5.6500    1.6933   -2.7473 H   0  0  0  0  0  0  0  0  0  0  0  0
   -7.2084    1.1351   -0.8947 H   0  0  0  0  0  0  0  0  0  0  0  0
   -6.3538    0.9275    1.4208 H   0  0  0  0  0  0  0  0  0  0  0  0
    2.2470    1.8601    0.9126 H   0  0  0  0  0  0  0  0  0  0  0  0
    3.5534   -0.7996    0.5927 H   0  0  0  0  0  0  0  0  0  0  0  0
    3.1195   -0.1818    2.1871 H   0  0  0  0  0  0  0  0  0  0  0  0
    4.5138    1.8294    1.8430 H   0  0  0  0  0  0  0  0  0  0  0  0
    5.4521    0.3464    1.7273 H   0  0  0  0  0  0  0  0  0  0  0  0
    6.1064    2.0077    0.0278 H   0  0  0  0  0  0  0  0  0  0  0  0
    4.4802    2.0440   -0.6363 H   0  0  0  0  0  0  0  0  0  0  0  0
    6.2844   -0.4367   -0.5839 H   0  0  0  0  0  0  0  0  0  0  0  0
    4.6954   -0.3216   -1.3695 H   0  0  0  0  0  0  0  0  0  0  0  0
    6.0506    0.6345   -1.9752 H   0  0  0  0  0  0  0  0  0  0  0  0
    1.1570   -3.8161    0.1244 H   0  0  0  0  0  0  0  0  0  0  0  0
   -0.0698   -3.8331    1.4128 H   0  0  0  0  0  0  0  0  0  0  0  0
   -0.2935   -4.8121   -0.0539 H   0  0  0  0  0  0  0  0  0  0  0  0
  1  2  1  0
  2  3  2  0
  3  4  1  0
  4  5  2  3
  5  6  1  0
  6  7  2  0
  7  8  1  0
  8  9  2  0
  9 10  1  0
 10 11  2  0
 11 12  1  0
  4 13  1  0
 13 14  2  0
 14 15  1  0
 15 16  1  0
 16 17  1  0
 17 18  1  0
 18 19  1  0
 14 20  1  0
 20 21  2  0
 21 22  1  0
 22 23  1  0
 22  1  1  0
 21  3  1  0
 11  6  1  0
  1 24  1  0
  2 25  1  0
  7 26  1  0
  8 27  1  0
  9 28  1  0
 10 29  1  0
 15 30  1  0
 16 31  1  0
 16 32  1  0
 17 33  1  0
 17 34  1  0
 18 35  1  0
 18 36  1  0
 19 37  1  0
 19 38  1  0
 19 39  1  0
 23 40  1  0
 23 41  1  0
 23 42  1  0
M  END
>  <ScrubInfo>  (5) 
{"isomerGroup": 0, "isomerId": 4, "confId": 0, "nr_conformers:": 1, "nr_isomers:": 9}

$$$$
_i5
     RDKit          3D

 42 44  0  0  0  0  0  0  0  0999 V2000
    0.4804   -2.5119    0.2839 N   0  0  0  0  0  0  0  0  0  0  0  0
    0.4117   -1.1457    0.1025 C   0  0  0  0  0  0  0  0  0  0  0  0
    1.6573   -0.5896   -0.0225 N   0  0  0  0  0  0  0  0  0  0  0  0
    1.8028    0.8563   -0.1426 C   0  0  0  0  0  0  0  0  0  0  0  0
    3.2643    1.2024   -0.4232 C   0  0  0  0  0  0  0  0  0  0  0  0
    3.4601    2.7105   -0.5709 C   0  0  0  0  0  0  0  0  0  0  0  0
    4.9134    3.0591   -0.8498 C   0  0  0  0  0  0  0  0  0  0  0  0
   -0.6872   -0.4461    0.0521 N   0  0  0  0  0  0  0  0  0  0  0  0
   -1.9111   -1.0880    0.1782 C   0  0  0  0  0  0  0  0  0  0  0  0
   -3.0556   -0.4822    0.1625 N   0  0  0  0  0  0  0  0  0  0  0  0
   -3.0525    0.9134   -0.0225 C   0  0  0  0  0  0  0  0  0  0  0  0
   -3.1840    1.7362    1.1037 C   0  0  0  0  0  0  0  0  0  0  0  0
   -3.2065    3.1273    0.9771 C   0  0  0  0  0  0  0  0  0  0  0  0
   -3.1078    3.7138   -0.2830 C   0  0  0  0  0  0  0  0  0  0  0  0
   -2.9926    2.9095   -1.4172 C   0  0  0  0  0  0  0  0  0  0  0  0
   -2.9706    1.5165   -1.2898 C   0  0  0  0  0  0  0  0  0  0  0  0
   -2.8517    0.5709   -2.7337 Cl  0  0  0  0  0  0  0  0  0  0  0  0
   -1.8875   -2.5180    0.3405 C   0  0  0  0  0  0  0  0  0  0  0  0
   -2.8443   -3.5335    0.4641 C   0  0  0  0  0  0  0  0  0  0  0  0
   -2.2830   -4.7499    0.5711 N   0  0  0  0  0  0  0  0  0  0  0  0
   -0.9514   -4.4987    0.5045 N   0  0  0  0  0  0  0  0  0  0  0  0
   -0.0270   -5.6004    0.5838 C   0  0  0  0  0  0  0  0  0  0  0  0
   -0.6877   -3.1720    0.3793 C   0  0  0  0  0  0  0  0  0  0  0  0
    1.3588   -2.9643    0.0706 H   0  0  0  0  0  0  0  0  0  0  0  0
    2.3440   -0.9998    0.5985 H   0  0  0  0  0  0  0  0  0  0  0  0
    1.1756    1.2288   -0.9613 H   0  0  0  0  0  0  0  0  0  0  0  0
    1.4746    1.3376    0.7861 H   0  0  0  0  0  0  0  0  0  0  0  0
    3.5938    0.6941   -1.3382 H   0  0  0  0  0  0  0  0  0  0  0  0
    3.8963    0.8255    0.3909 H   0  0  0  0  0  0  0  0  0  0  0  0
    3.1376    3.2194    0.3450 H   0  0  0  0  0  0  0  0  0  0  0  0
    2.8363    3.0888   -1.3892 H   0  0  0  0  0  0  0  0  0  0  0  0
    5.0304    4.1425   -0.9519 H   0  0  0  0  0  0  0  0  0  0  0  0
    5.2580    2.5912   -1.7775 H   0  0  0  0  0  0  0  0  0  0  0  0
    5.5610    2.7229   -0.0338 H   0  0  0  0  0  0  0  0  0  0  0  0
   -3.2666    1.2819    2.0876 H   0  0  0  0  0  0  0  0  0  0  0  0
   -3.3046    3.7494    1.8630 H   0  0  0  0  0  0  0  0  0  0  0  0
   -3.1277    4.7960   -0.3835 H   0  0  0  0  0  0  0  0  0  0  0  0
   -2.9258    3.3702   -2.3990 H   0  0  0  0  0  0  0  0  0  0  0  0
   -3.9230   -3.4435    0.4755 H   0  0  0  0  0  0  0  0  0  0  0  0
   -0.1805   -6.2407   -0.2884 H   0  0  0  0  0  0  0  0  0  0  0  0
   -0.2263   -6.1541    1.5048 H   0  0  0  0  0  0  0  0  0  0  0  0
    0.9986   -5.2257    0.5943 H   0  0  0  0  0  0  0  0  0  0  0  0
  1  2  1  0
  2  3  1  0
  3  4  1  0
  4  5  1  0
  5  6  1  0
  6  7  1  0
  2  8  2  0
  8  9  1  0
  9 10  2  3
 10 11  1  0
 11 12  2  0
 12 13  1  0
 13 14  2  0
 14 15  1  0
 15 16  2  0
 16 17  1  0
  9 18  1  0
 18 19  1  0
 19 20  2  0
 20 21  1  0
 21 22  1  0
 21 23  1  0
 23  1  1  0
 16 11  1  0
 23 18  2  0
  1 24  1  0
  3 25  1  0
  4 26  1  0
  4 27  1  0
  5 28  1  0
  5 29  1  0
  6 30  1  0
  6 31  1  0
  7 32  1  0
  7 33  1  0
  7 34  1  0
 12 35  1  0
 13 36  1  0
 14 37  1  0
 15 38  1  0
 19 39  1  0
 22 40  1  0
 22 41  1  0
 22 42  1  0
M  END
>  <ScrubInfo>  (6) 
{"isomerGroup": 0, "isomerId": 5, "confId": 0, "nr_conformers:": 1, "nr_isomers:": 9}

$$$$
_i6
     RDKit          3D

 42 44  0  0  0  0  0  0  0  0999 V2000
   -1.6453   -2.9903   -0.1041 N   0  0  0  0  0  0  0  0  0  0  0  0
   -2.2000   -1.7970    0.3471 C   0  0  0  0  0  0  0  0  0  0  0  0
   -1.3137   -0.7936    0.3993 C   0  0  0  0  0  0  0  0  0  0  0  0
   -1.2591    0.6142    0.7879 C   0  0  0  0  0  0  0  0  0  0  0  0
   -2.3440    1.3448    1.2277 N   0  0  0  0  0  0  0  0  0  0  0  0
   -3.6452    1.2310    0.6822 C   0  0  0  0  0  0  0  0  0  0  0  0
   -4.7117    1.1446    1.5920 C   0  0  0  0  0  0  0  0  0  0  0  0
   -6.0351    1.0852    1.1500 C   0  0  0  0  0  0  0  0  0  0  0  0
   -6.3165    1.1419   -0.2118 C   0  0  0  0  0  0  0  0  0  0  0  0
   -5.2754    1.2741   -1.1297 C   0  0  0  0  0  0  0  0  0  0  0  0
   -3.9484    1.3346   -0.6886 C   0  0  0  0  0  0  0  0  0  0  0  0
   -2.7285    1.5750   -1.8893 Cl  0  0  0  0  0  0  0  0  0  0  0  0
   -0.1048    1.2210    0.7477 N   0  0  0  0  0  0  0  0  0  0  0  0
    1.0060    0.5244    0.3237 C   0  0  0  0  0  0  0  0  0  0  0  0
    2.0945    1.2081    0.3829 N   0  0  0  0  0  0  0  0  0  0  0  0
    3.3282    0.5564   -0.0514 C   0  0  0  0  0  0  0  0  0  0  0  0
    4.4741    1.5554    0.1162 C   0  0  0  0  0  0  0  0  0  0  0  0
    5.8494    0.9611   -0.1912 C   0  0  0  0  0  0  0  0  0  0  0  0
    6.0231    0.5538   -1.6461 C   0  0  0  0  0  0  0  0  0  0  0  0
    1.0424   -0.7741   -0.1342 N   0  0  0  0  0  0  0  0  0  0  0  0
   -0.0738   -1.4157   -0.1119 C   0  0  0  0  0  0  0  0  0  0  0  0
   -0.3401   -2.7271   -0.5083 N   0  0  0  0  0  0  0  0  0  0  0  0
    0.6643   -3.7647   -0.3744 C   0  0  0  0  0  0  0  0  0  0  0  0
   -2.2334   -3.4781   -0.7840 H   0  0  0  0  0  0  0  0  0  0  0  0
   -3.2491   -1.7716    0.6040 H   0  0  0  0  0  0  0  0  0  0  0  0
   -2.0778    2.3247    1.3120 H   0  0  0  0  0  0  0  0  0  0  0  0
   -4.5079    1.1085    2.6609 H   0  0  0  0  0  0  0  0  0  0  0  0
   -6.8450    1.0023    1.8712 H   0  0  0  0  0  0  0  0  0  0  0  0
   -7.3465    1.1016   -0.5584 H   0  0  0  0  0  0  0  0  0  0  0  0
   -5.5049    1.3464   -2.1904 H   0  0  0  0  0  0  0  0  0  0  0  0
    3.2500    0.2584   -1.1031 H   0  0  0  0  0  0  0  0  0  0  0  0
    3.5320   -0.3316    0.5592 H   0  0  0  0  0  0  0  0  0  0  0  0
    4.2968    2.4312   -0.5207 H   0  0  0  0  0  0  0  0  0  0  0  0
    4.4796    1.9240    1.1501 H   0  0  0  0  0  0  0  0  0  0  0  0
    6.0343    0.0947    0.4545 H   0  0  0  0  0  0  0  0  0  0  0  0
    6.6134    1.7082    0.0550 H   0  0  0  0  0  0  0  0  0  0  0  0
    5.8126    1.3926   -2.3170 H   0  0  0  0  0  0  0  0  0  0  0  0
    5.3628   -0.2769   -1.9117 H   0  0  0  0  0  0  0  0  0  0  0  0
    7.0529    0.2278   -1.8242 H   0  0  0  0  0  0  0  0  0  0  0  0
    1.5857   -3.4782   -0.8916 H   0  0  0  0  0  0  0  0  0  0  0  0
    0.3079   -4.6991   -0.8199 H   0  0  0  0  0  0  0  0  0  0  0  0
    0.8963   -3.9480    0.6799 H   0  0  0  0  0  0  0  0  0  0  0  0
  1  2  1  0
  2  3  2  0
  3  4  1  0
  4  5  1  0
  5  6  1  0
  6  7  2  0
  7  8  1  0
  8  9  2  0
  9 10  1  0
 10 11  2  0
 11 12  1  0
  4 13  2  0
 13 14  1  0
 14 15  2  3
 15 16  1  0
 16 17  1  0
 17 18  1  0
 18 19  1  0
 14 20  1  0
 20 21  2  0
 21 22  1  0
 22 23  1  0
 22  1  1  0
 21  3  1  0
 11  6  1  0
  1 24  1  0
  2 25  1  0
  5 26  1  0
  7 27  1  0
  8 28  1  0
  9 29  1  0
 10 30  1  0
 16 31  1  0
 16 32  1  0
 17 33  1  0
 17 34  1  0
 18 35  1  0
 18 36  1  0
 19 37  1  0
 19 38  1  0
 19 39  1  0
 23 40  1  0
 23 41  1  0
 23 42  1  0
M  END
>  <ScrubInfo>  (7) 
{"isomerGroup": 0, "isomerId": 6, "confId": 0, "nr_conformers:": 1, "nr_isomers:": 9}

$$$$
_i7
     RDKit          3D

 42 44  0  0  0  0  0  0  0  0999 V2000
   -1.9024   -2.7985   -0.2825 N   0  0  0  0  0  0  0  0  0  0  0  0
   -2.3343   -1.4773   -0.3015 C   0  0  0  0  0  0  0  0  0  0  0  0
   -1.3575   -0.5899   -0.0653 C   0  0  0  0  0  0  0  0  0  0  0  0
   -1.1551    0.8656    0.0793 C   0  0  0  0  0  0  0  0  0  0  0  0
   -2.0173    1.8331   -0.0291 N   0  0  0  0  0  0  0  0  0  0  0  0
   -3.3694    1.5702   -0.2986 C   0  0  0  0  0  0  0  0  0  0  0  0
   -3.8102    1.6271   -1.6267 C   0  0  0  0  0  0  0  0  0  0  0  0
   -5.1514    1.4015   -1.9452 C   0  0  0  0  0  0  0  0  0  0  0  0
   -6.0719    1.1301   -0.9346 C   0  0  0  0  0  0  0  0  0  0  0  0
   -5.6537    1.0909    0.3959 C   0  0  0  0  0  0  0  0  0  0  0  0
   -4.3111    1.3170    0.7142 C   0  0  0  0  0  0  0  0  0  0  0  0
   -3.8454    1.2544    2.3776 Cl  0  0  0  0  0  0  0  0  0  0  0  0
    0.1447    1.1790    0.3691 N   0  0  0  0  0  0  0  0  0  0  0  0
    1.1929    0.3182    0.5280 C   0  0  0  0  0  0  0  0  0  0  0  0
    2.3484    0.8078    0.8394 N   0  0  0  0  0  0  0  0  0  0  0  0
    3.4546   -0.1368    0.9968 C   0  0  0  0  0  0  0  0  0  0  0  0
    4.7294    0.6391    1.3343 C   0  0  0  0  0  0  0  0  0  0  0  0
    5.1868    1.6256    0.2551 C   0  0  0  0  0  0  0  0  0  0  0  0
    5.5401    0.9616   -1.0666 C   0  0  0  0  0  0  0  0  0  0  0  0
    1.0409   -1.0415    0.3576 N   0  0  0  0  0  0  0  0  0  0  0  0
   -0.1453   -1.4757    0.0648 C   0  0  0  0  0  0  0  0  0  0  0  0
   -0.5199   -2.8006   -0.1732 N   0  0  0  0  0  0  0  0  0  0  0  0
    0.1312   -3.8950    0.5219 C   0  0  0  0  0  0  0  0  0  0  0  0
   -2.2970   -3.3683   -1.0341 H   0  0  0  0  0  0  0  0  0  0  0  0
   -3.3792   -1.2887   -0.4965 H   0  0  0  0  0  0  0  0  0  0  0  0
   -3.0993    1.8564   -2.4169 H   0  0  0  0  0  0  0  0  0  0  0  0
   -5.4776    1.4495   -2.9816 H   0  0  0  0  0  0  0  0  0  0  0  0
   -7.1177    0.9614   -1.1810 H   0  0  0  0  0  0  0  0  0  0  0  0
   -6.3777    0.8907    1.1817 H   0  0  0  0  0  0  0  0  0  0  0  0
    0.3590    2.1535    0.5181 H   0  0  0  0  0  0  0  0  0  0  0  0
    3.6069   -0.7293    0.0877 H   0  0  0  0  0  0  0  0  0  0  0  0
    3.2461   -0.8262    1.8244 H   0  0  0  0  0  0  0  0  0  0  0  0
    4.5714    1.1979    2.2655 H   0  0  0  0  0  0  0  0  0  0  0  0
    5.5364   -0.0774    1.5307 H   0  0  0  0  0  0  0  0  0  0  0  0
    6.0728    2.1549    0.6262 H   0  0  0  0  0  0  0  0  0  0  0  0
    4.4173    2.3872    0.0853 H   0  0  0  0  0  0  0  0  0  0  0  0
    5.9604    1.7001   -1.7569 H   0  0  0  0  0  0  0  0  0  0  0  0
    4.6578    0.5271   -1.5455 H   0  0  0  0  0  0  0  0  0  0  0  0
    6.2831    0.1707   -0.9235 H   0  0  0  0  0  0  0  0  0  0  0  0
    1.2141   -3.8623    0.3649 H   0  0  0  0  0  0  0  0  0  0  0  0
   -0.0692   -3.8468    1.5974 H   0  0  0  0  0  0  0  0  0  0  0  0
   -0.2316   -4.8561    0.1433 H   0  0  0  0  0  0  0  0  0  0  0  0
  1  2  1  0
  2  3  2  0
  3  4  1  0
  4  5  2  3
  5  6  1  0
  6  7  2  0
  7  8  1  0
  8  9  2  0
  9 10  1  0
 10 11  2  0
 11 12  1  0
  4 13  1  0
 13 14  1  0
 14 15  2  3
 15 16  1  0
 16 17  1  0
 17 18  1  0
 18 19  1  0
 14 20  1  0
 20 21  2  0
 21 22  1  0
 22 23  1  0
 22  1  1  0
 21  3  1  0
 11  6  1  0
  1 24  1  0
  2 25  1  0
  7 26  1  0
  8 27  1  0
  9 28  1  0
 10 29  1  0
 13 30  1  0
 16 31  1  0
 16 32  1  0
 17 33  1  0
 17 34  1  0
 18 35  1  0
 18 36  1  0
 19 37  1  0
 19 38  1  0
 19 39  1  0
 23 40  1  0
 23 41  1  0
 23 42  1  0
M  END
>  <ScrubInfo>  (8) 
{"isomerGroup": 0, "isomerId": 7, "confId": 0, "nr_conformers:": 1, "nr_isomers:": 9}

$$$$
_i8
     RDKit          3D

 42 44  0  0  0  0  0  0  0  0999 V2000
    0.7352   -1.8505    0.1381 N   0  0  0  0  0  0  0  0  0  0  0  0
    0.4789   -0.5092    0.3822 C   0  0  0  0  0  0  0  0  0  0  0  0
    1.2502    0.3550    0.9513 N   0  0  0  0  0  0  0  0  0  0  0  0
    2.5643   -0.0814    1.4108 C   0  0  0  0  0  0  0  0  0  0  0  0
    3.3029    1.1088    2.0248 C   0  0  0  0  0  0  0  0  0  0  0  0
    3.5718    2.2668    1.0583 C   0  0  0  0  0  0  0  0  0  0  0  0
    4.4635    1.8872   -0.1136 C   0  0  0  0  0  0  0  0  0  0  0  0
   -0.7624   -0.0903   -0.0551 N   0  0  0  0  0  0  0  0  0  0  0  0
   -1.7808   -0.7764   -0.6866 C   0  0  0  0  0  0  0  0  0  0  0  0
   -2.9426   -0.3939   -1.1024 N   0  0  0  0  0  0  0  0  0  0  0  0
   -3.3144    0.9465   -0.8955 C   0  0  0  0  0  0  0  0  0  0  0  0
   -3.1657    1.8487   -1.9556 C   0  0  0  0  0  0  0  0  0  0  0  0
   -3.5248    3.1904   -1.8088 C   0  0  0  0  0  0  0  0  0  0  0  0
   -4.0481    3.6438   -0.5995 C   0  0  0  0  0  0  0  0  0  0  0  0
   -4.2180    2.7550    0.4622 C   0  0  0  0  0  0  0  0  0  0  0  0
   -3.8588    1.4119    0.3145 C   0  0  0  0  0  0  0  0  0  0  0  0
   -4.0857    0.3549    1.6632 Cl  0  0  0  0  0  0  0  0  0  0  0  0
   -1.4141   -2.1574   -0.8937 C   0  0  0  0  0  0  0  0  0  0  0  0
   -2.0380   -3.2742   -1.4683 C   0  0  0  0  0  0  0  0  0  0  0  0
   -1.2629   -4.3688   -1.4235 N   0  0  0  0  0  0  0  0  0  0  0  0
   -0.1368   -3.9443   -0.8002 N   0  0  0  0  0  0  0  0  0  0  0  0
    0.9300   -4.8865   -0.5757 C   0  0  0  0  0  0  0  0  0  0  0  0
   -0.1911   -2.6225   -0.4755 C   0  0  0  0  0  0  0  0  0  0  0  0
    1.6275   -2.2123    0.4445 H   0  0  0  0  0  0  0  0  0  0  0  0
    2.4539   -0.8527    2.1827 H   0  0  0  0  0  0  0  0  0  0  0  0
    3.1507   -0.5056    0.5885 H   0  0  0  0  0  0  0  0  0  0  0  0
    2.7179    1.4953    2.8690 H   0  0  0  0  0  0  0  0  0  0  0  0
    4.2563    0.7572    2.4377 H   0  0  0  0  0  0  0  0  0  0  0  0
    4.0576    3.0756    1.6174 H   0  0  0  0  0  0  0  0  0  0  0  0
    2.6271    2.6734    0.6798 H   0  0  0  0  0  0  0  0  0  0  0  0
    4.7055    2.7765   -0.7044 H   0  0  0  0  0  0  0  0  0  0  0  0
    5.4028    1.4453    0.2335 H   0  0  0  0  0  0  0  0  0  0  0  0
    3.9688    1.1737   -0.7791 H   0  0  0  0  0  0  0  0  0  0  0  0
   -0.9321    0.8851    0.1387 H   0  0  0  0  0  0  0  0  0  0  0  0
   -2.7696    1.4976   -2.9057 H   0  0  0  0  0  0  0  0  0  0  0  0
   -3.4021    3.8785   -2.6421 H   0  0  0  0  0  0  0  0  0  0  0  0
   -4.3317    4.6876   -0.4858 H   0  0  0  0  0  0  0  0  0  0  0  0
   -4.6347    3.1120    1.4006 H   0  0  0  0  0  0  0  0  0  0  0  0
   -3.0206   -3.3372   -1.9183 H   0  0  0  0  0  0  0  0  0  0  0  0
    0.5103   -5.7848   -0.1155 H   0  0  0  0  0  0  0  0  0  0  0  0
    1.6782   -4.4516    0.0899 H   0  0  0  0  0  0  0  0  0  0  0  0
    1.3817   -5.1273   -1.5412 H   0  0  0  0  0  0  0  0  0  0  0  0
  1  2  1  0
  2  3  2  3
  3  4  1  0
  4  5  1  0
  5  6  1  0
  6  7  1  0
  2  8  1  0
  8  9  1  0
  9 10  2  3
 10 11  1  0
 11 12  2  0
 12 13  1  0
 13 14  2  0
 14 15  1  0
 15 16  2  0
 16 17  1  0
  9 18  1  0
 18 19  1  0
 19 20  2  0
 20 21  1  0
 21 22  1  0
 21 23  1  0
 23  1  1  0
 16 11  1  0
 23 18  2  0
  1 24  1  0
  4 25  1  0
  4 26  1  0
  5 27  1  0
  5 28  1  0
  6 29  1  0
  6 30  1  0
  7 31  1  0
  7 32  1  0
  7 33  1  0
  8 34  1  0
 12 35  1  0
 13 36  1  0
 14 37  1  0
 15 38  1  0
 19 39  1  0
 22 40  1  0
 22 41  1  0
 22 42  1  0
M  END
>  <ScrubInfo>  (9) 
{"isomerGroup": 0, "isomerId": 8, "confId": 0, "nr_conformers:": 1, "nr_isomers:": 9}

$$$$
