_i0
     RDKit          3D

 43 45  0  0  0  0  0  0  0  0999 V2000
    6.7476    2.0402    0.2341 C   0  0  0  0  0  0  0  0  0  0  0  0
    6.2925    0.6970    0.3260 O   0  0  0  0  0  0  0  0  0  0  0  0
    4.8825    0.5957    0.5389 C   0  0  0  0  0  0  0  0  0  0  0  0
    4.1354    0.6271   -0.7926 C   0  0  0  0  0  0  0  0  0  0  0  0
    2.6224    0.5262   -0.6155 C   0  0  0  0  0  0  0  0  0  0  0  0
    2.2616   -0.7786   -0.0912 N   0  0  0  0  0  0  0  0  0  0  0  0
    0.8955   -0.9977    0.0455 C   0  0  0  0  0  0  0  0  0  0  0  0
    0.0884    0.0260    0.3859 N   0  0  0  0  0  0  0  0  0  0  0  0
   -1.2476   -0.1676    0.5149 C   0  0  0  0  0  0  0  0  0  0  0  0
   -2.0059    0.9478    0.8834 N   0  0  0  0  0  0  0  0  0  0  0  0
   -3.2349    1.4461    0.4017 C   0  0  0  0  0  0  0  0  0  0  0  0
   -3.8974    0.8877   -0.6999 C   0  0  0  0  0  0  0  0  0  0  0  0
   -5.1414    1.3764   -1.1230 C   0  0  0  0  0  0  0  0  0  0  0  0
   -5.8703    0.6257   -2.4983 Cl  0  0  0  0  0  0  0  0  0  0  0  0
   -5.7468    2.4361   -0.4419 C   0  0  0  0  0  0  0  0  0  0  0  0
   -7.2772    3.0859   -0.9089 Cl  0  0  0  0  0  0  0  0  0  0  0  0
   -5.1062    3.0084    0.6559 C   0  0  0  0  0  0  0  0  0  0  0  0
   -3.8661    2.5165    1.0710 C   0  0  0  0  0  0  0  0  0  0  0  0
   -3.1134    3.2721    2.4349 Cl  0  0  0  0  0  0  0  0  0  0  0  0
   -1.7337   -1.4661    0.3475 C   0  0  0  0  0  0  0  0  0  0  0  0
   -2.9506   -2.1694    0.4650 C   0  0  0  0  0  0  0  0  0  0  0  0
   -2.8328   -3.4687    0.1697 N   0  0  0  0  0  0  0  0  0  0  0  0
   -1.5148   -3.6047   -0.1050 N   0  0  0  0  0  0  0  0  0  0  0  0
   -0.9917   -4.9039   -0.4450 C   0  0  0  0  0  0  0  0  0  0  0  0
   -0.8126   -2.4350   -0.0002 C   0  0  0  0  0  0  0  0  0  0  0  0
    0.5040   -2.2566   -0.1830 N   0  0  0  0  0  0  0  0  0  0  0  0
    6.5364    2.5799    1.1623 H   0  0  0  0  0  0  0  0  0  0  0  0
    7.8303    2.0246    0.0820 H   0  0  0  0  0  0  0  0  0  0  0  0
    6.2876    2.5547   -0.6137 H   0  0  0  0  0  0  0  0  0  0  0  0
    4.5365    1.3835    1.2185 H   0  0  0  0  0  0  0  0  0  0  0  0
    4.7114   -0.3642    1.0375 H   0  0  0  0  0  0  0  0  0  0  0  0
    4.3662    1.5578   -1.3232 H   0  0  0  0  0  0  0  0  0  0  0  0
    4.5043   -0.1824   -1.4352 H   0  0  0  0  0  0  0  0  0  0  0  0
    2.2870    1.3274    0.0547 H   0  0  0  0  0  0  0  0  0  0  0  0
    2.1463    0.6812   -1.5920 H   0  0  0  0  0  0  0  0  0  0  0  0
    2.6187   -1.5737   -0.6122 H   0  0  0  0  0  0  0  0  0  0  0  0
   -1.3778    1.6906    1.1859 H   0  0  0  0  0  0  0  0  0  0  0  0
   -3.4397    0.0824   -1.2685 H   0  0  0  0  0  0  0  0  0  0  0  0
   -5.5701    3.8348    1.1892 H   0  0  0  0  0  0  0  0  0  0  0  0
   -3.9216   -1.7891    0.7547 H   0  0  0  0  0  0  0  0  0  0  0  0
   -1.1260   -5.5636    0.4159 H   0  0  0  0  0  0  0  0  0  0  0  0
   -1.5454   -5.2833   -1.3075 H   0  0  0  0  0  0  0  0  0  0  0  0
    0.0693   -4.8272   -0.6931 H   0  0  0  0  0  0  0  0  0  0  0  0
  1  2  1  0
  2  3  1  0
  3  4  1  0
  4  5  1  0
  5  6  1  0
  6  7  1  0
  7  8  2  0
  8  9  1  0
  9 10  1  0
 10 11  1  0
 11 12  2  0
 12 13  1  0
 13 14  1  0
 13 15  2  0
 15 16  1  0
 15 17  1  0
 17 18  2  0
 18 19  1  0
  9 20  2  0
 20 21  1  0
 21 22  2  0
 22 23  1  0
 23 24  1  0
 23 25  1  0
 25 26  2  0
 26  7  1  0
 18 11  1  0
 25 20  1  0
  1 27  1  0
  1 28  1  0
  1 29  1  0
  3 30  1  0
  3 31  1  0
  4 32  1  0
  4 33  1  0
  5 34  1  0
  5 35  1  0
  6 36  1  0
 10 37  1  0
 12 38  1  0
 17 39  1  0
 21 40  1  0
 24 41  1  0
 24 42  1  0
 24 43  1  0
M  END
>  <ScrubInfo>  (1) 
{"isomerGroup": 0, "isomerId": 0, "confId": 0, "nr_conformers:": 1, "nr_isomers:": 9}

$$$$
_i1
     RDKit          3D

 43 45  0  0  0  0  0  0  0  0999 V2000
   -1.0266    0.1459    0.1332 N   0  0  0  0  0  0  0  0  0  0  0  0
   -1.8899   -0.7760   -0.4293 C   0  0  0  0  0  0  0  0  0  0  0  0
   -3.2018   -0.4870   -0.7983 N   0  0  0  0  0  0  0  0  0  0  0  0
   -3.9152    0.6795   -0.4335 C   0  0  0  0  0  0  0  0  0  0  0  0
   -4.9614    0.5546    0.4956 C   0  0  0  0  0  0  0  0  0  0  0  0
   -5.6735    1.6763    0.9374 C   0  0  0  0  0  0  0  0  0  0  0  0
   -6.9449    1.4191    2.0783 Cl  0  0  0  0  0  0  0  0  0  0  0  0
   -5.3420    2.9463    0.4577 C   0  0  0  0  0  0  0  0  0  0  0  0
   -6.1781    4.3725    0.9570 Cl  0  0  0  0  0  0  0  0  0  0  0  0
   -4.3018    3.0908   -0.4613 C   0  0  0  0  0  0  0  0  0  0  0  0
   -3.5929    1.9687   -0.9014 C   0  0  0  0  0  0  0  0  0  0  0  0
   -2.3536    2.2248   -2.0799 Cl  0  0  0  0  0  0  0  0  0  0  0  0
   -1.3652   -1.9985   -0.5927 C   0  0  0  0  0  0  0  0  0  0  0  0
   -1.7778   -3.2963   -1.1392 C   0  0  0  0  0  0  0  0  0  0  0  0
   -0.8427   -4.2082   -1.0644 N   0  0  0  0  0  0  0  0  0  0  0  0
    0.2388   -3.5828   -0.4212 N   0  0  0  0  0  0  0  0  0  0  0  0
    1.5429   -4.1986   -0.4976 C   0  0  0  0  0  0  0  0  0  0  0  0
    0.0301   -2.2377   -0.1596 C   0  0  0  0  0  0  0  0  0  0  0  0
    0.8258   -1.3510    0.3325 N   0  0  0  0  0  0  0  0  0  0  0  0
    0.2861   -0.0906    0.4499 C   0  0  0  0  0  0  0  0  0  0  0  0
    1.0104    0.9012    0.8503 N   0  0  0  0  0  0  0  0  0  0  0  0
    2.4111    0.6491    1.1940 C   0  0  0  0  0  0  0  0  0  0  0  0
    3.2876    0.8043   -0.0447 C   0  0  0  0  0  0  0  0  0  0  0  0
    4.7611    0.6099    0.2976 C   0  0  0  0  0  0  0  0  0  0  0  0
    5.5869    0.6206   -0.8678 O   0  0  0  0  0  0  0  0  0  0  0  0
    5.8086    1.9241   -1.3883 C   0  0  0  0  0  0  0  0  0  0  0  0
   -1.3019    1.1156    0.1384 H   0  0  0  0  0  0  0  0  0  0  0  0
   -3.7938   -1.3127   -0.8420 H   0  0  0  0  0  0  0  0  0  0  0  0
   -5.2177   -0.4254    0.8934 H   0  0  0  0  0  0  0  0  0  0  0  0
   -4.0461    4.0778   -0.8411 H   0  0  0  0  0  0  0  0  0  0  0  0
   -2.7739   -3.4382   -1.5770 H   0  0  0  0  0  0  0  0  0  0  0  0
    1.4604   -5.2885   -0.4338 H   0  0  0  0  0  0  0  0  0  0  0  0
    2.0305   -3.9425   -1.4434 H   0  0  0  0  0  0  0  0  0  0  0  0
    2.1813   -3.8636    0.3261 H   0  0  0  0  0  0  0  0  0  0  0  0
    2.7058    1.3940    1.9429 H   0  0  0  0  0  0  0  0  0  0  0  0
    2.5613   -0.3261    1.6728 H   0  0  0  0  0  0  0  0  0  0  0  0
    2.9960    0.0865   -0.8211 H   0  0  0  0  0  0  0  0  0  0  0  0
    3.1264    1.7950   -0.4853 H   0  0  0  0  0  0  0  0  0  0  0  0
    5.1106    1.3618    1.0150 H   0  0  0  0  0  0  0  0  0  0  0  0
    4.8982   -0.3712    0.7657 H   0  0  0  0  0  0  0  0  0  0  0  0
    4.8825    2.3524   -1.7801 H   0  0  0  0  0  0  0  0  0  0  0  0
    6.2362    2.5796   -0.6236 H   0  0  0  0  0  0  0  0  0  0  0  0
    6.5221    1.8443   -2.2132 H   0  0  0  0  0  0  0  0  0  0  0  0
  1  2  1  0
  2  3  1  0
  3  4  1  0
  4  5  2  0
  5  6  1  0
  6  7  1  0
  6  8  2  0
  8  9  1  0
  8 10  1  0
 10 11  2  0
 11 12  1  0
  2 13  2  0
 13 14  1  0
 14 15  2  0
 15 16  1  0
 16 17  1  0
 16 18  1  0
 18 19  2  0
 19 20  1  0
 20 21  2  3
 21 22  1  0
 22 23  1  0
 23 24  1  0
 24 25  1  0
 25 26  1  0
 20  1  1  0
 11  4  1  0
 18 13  1  0
  1 27  1  0
  3 28  1  0
  5 29  1  0
 10 30  1  0
 14 31  1  0
 17 32  1  0
 17 33  1  0
 17 34  1  0
 22 35  1  0
 22 36  1  0
 23 37  1  0
 23 38  1  0
 24 39  1  0
 24 40  1  0
 26 41  1  0
 26 42  1  0
 26 43  1  0
M  END
>  <ScrubInfo>  (2) 
{"isomerGroup": 0, "isomerId": 1, "confId": 0, "nr_conformers:": 1, "nr_isomers:": 9}

$$$$
_i2
     RDKit          3D

 43 45  0  0  0  0  0  0  0  0999 V2000
   -0.9684   -0.1374   -0.2087 N   0  0  0  0  0  0  0  0  0  0  0  0
    0.1333   -0.7356   -0.7866 C   0  0  0  0  0  0  0  0  0  0  0  0
    1.1082   -1.0273    0.1326 N   0  0  0  0  0  0  0  0  0  0  0  0
    2.3160   -1.7364   -0.2774 C   0  0  0  0  0  0  0  0  0  0  0  0
    3.3526   -1.7062    0.8387 C   0  0  0  0  0  0  0  0  0  0  0  0
    3.9258   -0.3106    1.0577 C   0  0  0  0  0  0  0  0  0  0  0  0
    4.8904   -0.3902    2.1078 O   0  0  0  0  0  0  0  0  0  0  0  0
    5.4951    0.8720    2.3598 C   0  0  0  0  0  0  0  0  0  0  0  0
    0.2473   -0.9861   -2.0656 N   0  0  0  0  0  0  0  0  0  0  0  0
   -0.8592   -0.5935   -2.7558 C   0  0  0  0  0  0  0  0  0  0  0  0
   -1.9961    0.0164   -2.2648 C   0  0  0  0  0  0  0  0  0  0  0  0
   -2.8223    0.2133   -3.3796 C   0  0  0  0  0  0  0  0  0  0  0  0
   -2.2655   -0.2431   -4.5094 N   0  0  0  0  0  0  0  0  0  0  0  0
   -1.0648   -0.7251   -4.1012 N   0  0  0  0  0  0  0  0  0  0  0  0
   -0.1677   -1.2994   -5.0716 C   0  0  0  0  0  0  0  0  0  0  0  0
   -2.1000    0.3109   -0.8588 C   0  0  0  0  0  0  0  0  0  0  0  0
   -3.1597    0.9144   -0.4348 N   0  0  0  0  0  0  0  0  0  0  0  0
   -3.2832    1.2074    0.9327 C   0  0  0  0  0  0  0  0  0  0  0  0
   -4.1236    0.3963    1.7037 C   0  0  0  0  0  0  0  0  0  0  0  0
   -4.3191    0.6558    3.0635 C   0  0  0  0  0  0  0  0  0  0  0  0
   -5.3582   -0.4069    3.9428 Cl  0  0  0  0  0  0  0  0  0  0  0  0
   -3.6778    1.7444    3.6645 C   0  0  0  0  0  0  0  0  0  0  0  0
   -3.8650    2.1198    5.3398 Cl  0  0  0  0  0  0  0  0  0  0  0  0
   -2.8472    2.5705    2.9039 C   0  0  0  0  0  0  0  0  0  0  0  0
   -2.6560    2.3066    1.5455 C   0  0  0  0  0  0  0  0  0  0  0  0
   -1.6127    3.3566    0.6549 Cl  0  0  0  0  0  0  0  0  0  0  0  0
   -0.8518    0.1690    0.7410 H   0  0  0  0  0  0  0  0  0  0  0  0
    0.7472   -1.3740    1.0146 H   0  0  0  0  0  0  0  0  0  0  0  0
    2.0580   -2.7772   -0.5041 H   0  0  0  0  0  0  0  0  0  0  0  0
    2.7390   -1.2896   -1.1848 H   0  0  0  0  0  0  0  0  0  0  0  0
    4.1735   -2.3905    0.5902 H   0  0  0  0  0  0  0  0  0  0  0  0
    2.9248   -2.0802    1.7774 H   0  0  0  0  0  0  0  0  0  0  0  0
    3.1368    0.3928    1.3462 H   0  0  0  0  0  0  0  0  0  0  0  0
    4.4098    0.0493    0.1425 H   0  0  0  0  0  0  0  0  0  0  0  0
    6.0229    1.2281    1.4699 H   0  0  0  0  0  0  0  0  0  0  0  0
    4.7415    1.6025    2.6694 H   0  0  0  0  0  0  0  0  0  0  0  0
    6.2187    0.7512    3.1703 H   0  0  0  0  0  0  0  0  0  0  0  0
   -3.8036    0.6679   -3.4189 H   0  0  0  0  0  0  0  0  0  0  0  0
    0.7501   -1.6343   -4.5835 H   0  0  0  0  0  0  0  0  0  0  0  0
   -0.6684   -2.1498   -5.5414 H   0  0  0  0  0  0  0  0  0  0  0  0
    0.0674   -0.5352   -5.8168 H   0  0  0  0  0  0  0  0  0  0  0  0
   -4.6339   -0.4388    1.2276 H   0  0  0  0  0  0  0  0  0  0  0  0
   -2.3541    3.4222    3.3670 H   0  0  0  0  0  0  0  0  0  0  0  0
  1  2  1  0
  2  3  1  0
  3  4  1  0
  4  5  1  0
  5  6  1  0
  6  7  1  0
  7  8  1  0
  2  9  2  0
  9 10  1  0
 10 11  2  0
 11 12  1  0
 12 13  2  0
 13 14  1  0
 14 15  1  0
 11 16  1  0
 16 17  2  3
 17 18  1  0
 18 19  2  0
 19 20  1  0
 20 21  1  0
 20 22  2  0
 22 23  1  0
 22 24  1  0
 24 25  2  0
 25 26  1  0
 16  1  1  0
 25 18  1  0
 14 10  1  0
  1 27  1  0
  3 28  1  0
  4 29  1  0
  4 30  1  0
  5 31  1  0
  5 32  1  0
  6 33  1  0
  6 34  1  0
  8 35  1  0
  8 36  1  0
  8 37  1  0
 12 38  1  0
 15 39  1  0
 15 40  1  0
 15 41  1  0
 19 42  1  0
 24 43  1  0
M  END
>  <ScrubInfo>  (3) 
{"isomerGroup": 0, "isomerId": 2, "confId": 0, "nr_conformers:": 1, "nr_isomers:": 9}

$$$$
_i3
     RDKit          3D

 43 45  0  0  0  0  0  0  0  0999 V2000
    0.5652   -2.3543    0.8039 N   0  0  0  0  0  0  0  0  0  0  0  0
    1.0662   -1.3067    0.0607 C   0  0  0  0  0  0  0  0  0  0  0  0
    2.3468   -1.1269    0.0497 N   0  0  0  0  0  0  0  0  0  0  0  0
    2.8580   -0.0077   -0.7432 C   0  0  0  0  0  0  0  0  0  0  0  0
    4.3818    0.0142   -0.6082 C   0  0  0  0  0  0  0  0  0  0  0  0
    5.0178    1.1432   -1.4184 C   0  0  0  0  0  0  0  0  0  0  0  0
    5.4145    2.2549   -0.6145 O   0  0  0  0  0  0  0  0  0  0  0  0
    4.3304    3.0315   -0.1289 C   0  0  0  0  0  0  0  0  0  0  0  0
    0.2362   -0.4584   -0.6613 N   0  0  0  0  0  0  0  0  0  0  0  0
   -1.0519   -0.6527   -0.6207 C   0  0  0  0  0  0  0  0  0  0  0  0
   -1.9546    0.1135   -1.3094 N   0  0  0  0  0  0  0  0  0  0  0  0
   -2.7906    1.1016   -0.7054 C   0  0  0  0  0  0  0  0  0  0  0  0
   -2.9776    1.1939    0.6825 C   0  0  0  0  0  0  0  0  0  0  0  0
   -3.8577    2.1371    1.2321 C   0  0  0  0  0  0  0  0  0  0  0  0
   -4.0083    2.1834    2.9531 Cl  0  0  0  0  0  0  0  0  0  0  0  0
   -4.5766    2.9969    0.3964 C   0  0  0  0  0  0  0  0  0  0  0  0
   -5.6760    4.1803    1.0074 Cl  0  0  0  0  0  0  0  0  0  0  0  0
   -4.4160    2.9135   -0.9863 C   0  0  0  0  0  0  0  0  0  0  0  0
   -3.5376    1.9724   -1.5279 C   0  0  0  0  0  0  0  0  0  0  0  0
   -3.3711    1.9150   -3.2496 Cl  0  0  0  0  0  0  0  0  0  0  0  0
   -1.6140   -1.7653    0.1090 C   0  0  0  0  0  0  0  0  0  0  0  0
   -2.8771   -2.3358    0.3234 C   0  0  0  0  0  0  0  0  0  0  0  0
   -2.8192   -3.4112    1.1246 N   0  0  0  0  0  0  0  0  0  0  0  0
   -1.4974   -3.5397    1.4046 N   0  0  0  0  0  0  0  0  0  0  0  0
   -1.0584   -4.6232    2.2465 C   0  0  0  0  0  0  0  0  0  0  0  0
   -0.7576   -2.5725    0.8041 C   0  0  0  0  0  0  0  0  0  0  0  0
    1.2655   -2.9141    1.2726 H   0  0  0  0  0  0  0  0  0  0  0  0
    2.4357    0.9375   -0.3866 H   0  0  0  0  0  0  0  0  0  0  0  0
    2.5933   -0.1360   -1.8001 H   0  0  0  0  0  0  0  0  0  0  0  0
    4.6686    0.0810    0.4480 H   0  0  0  0  0  0  0  0  0  0  0  0
    4.7629   -0.9446   -0.9829 H   0  0  0  0  0  0  0  0  0  0  0  0
    5.9432    0.7631   -1.8655 H   0  0  0  0  0  0  0  0  0  0  0  0
    4.3845    1.4812   -2.2470 H   0  0  0  0  0  0  0  0  0  0  0  0
    4.7367    3.9468    0.3104 H   0  0  0  0  0  0  0  0  0  0  0  0
    3.6505    3.3082   -0.9403 H   0  0  0  0  0  0  0  0  0  0  0  0
    3.7927    2.4920    0.6549 H   0  0  0  0  0  0  0  0  0  0  0  0
   -1.5013    0.5567   -2.1094 H   0  0  0  0  0  0  0  0  0  0  0  0
   -2.4313    0.5457    1.3635 H   0  0  0  0  0  0  0  0  0  0  0  0
   -4.9747    3.5779   -1.6414 H   0  0  0  0  0  0  0  0  0  0  0  0
   -3.8388   -2.0218   -0.0612 H   0  0  0  0  0  0  0  0  0  0  0  0
    0.0191   -4.5543    2.4100 H   0  0  0  0  0  0  0  0  0  0  0  0
   -1.2995   -5.5652    1.7478 H   0  0  0  0  0  0  0  0  0  0  0  0
   -1.5824   -4.5513    3.2029 H   0  0  0  0  0  0  0  0  0  0  0  0
  1  2  1  0
  2  3  2  3
  3  4  1  0
  4  5  1  0
  5  6  1  0
  6  7  1  0
  7  8  1  0
  2  9  1  0
  9 10  2  0
 10 11  1  0
 11 12  1  0
 12 13  2  0
 13 14  1  0
 14 15  1  0
 14 16  2  0
 16 17  1  0
 16 18  1  0
 18 19  2  0
 19 20  1  0
 10 21  1  0
 21 22  1  0
 22 23  2  0
 23 24  1  0
 24 25  1  0
 24 26  1  0
 26  1  1  0
 19 12  1  0
 26 21  2  0
  1 27  1  0
  4 28  1  0
  4 29  1  0
  5 30  1  0
  5 31  1  0
  6 32  1  0
  6 33  1  0
  8 34  1  0
  8 35  1  0
  8 36  1  0
 11 37  1  0
 13 38  1  0
 18 39  1  0
 22 40  1  0
 25 41  1  0
 25 42  1  0
 25 43  1  0
M  END
>  <ScrubInfo>  (4) 
{"isomerGroup": 0, "isomerId": 3, "confId": 0, "nr_conformers:": 1, "nr_isomers:": 9}

$$$$
_i4
     RDKit          3D

 43 45  0  0  0  0  0  0  0  0999 V2000
   -2.4705   -2.6266   -0.0088 N   0  0  0  0  0  0  0  0  0  0  0  0
   -2.8052   -1.2780   -0.0740 C   0  0  0  0  0  0  0  0  0  0  0  0
   -1.7602   -0.4790   -0.3410 C   0  0  0  0  0  0  0  0  0  0  0  0
   -1.4617    0.9392   -0.4935 C   0  0  0  0  0  0  0  0  0  0  0  0
   -2.2386    1.9712   -0.4792 N   0  0  0  0  0  0  0  0  0  0  0  0
   -3.6243    1.8428   -0.3267 C   0  0  0  0  0  0  0  0  0  0  0  0
   -4.1725    2.0616    0.9426 C   0  0  0  0  0  0  0  0  0  0  0  0
   -5.5534    1.9911    1.1467 C   0  0  0  0  0  0  0  0  0  0  0  0
   -6.1434    2.2519    2.7489 Cl  0  0  0  0  0  0  0  0  0  0  0  0
   -6.4037    1.7132    0.0707 C   0  0  0  0  0  0  0  0  0  0  0  0
   -8.1180    1.6009    0.2507 Cl  0  0  0  0  0  0  0  0  0  0  0  0
   -5.8717    1.5126   -1.2049 C   0  0  0  0  0  0  0  0  0  0  0  0
   -4.4907    1.5840   -1.4034 C   0  0  0  0  0  0  0  0  0  0  0  0
   -3.8870    1.3232   -3.0010 Cl  0  0  0  0  0  0  0  0  0  0  0  0
   -0.1314    1.2123   -0.6650 N   0  0  0  0  0  0  0  0  0  0  0  0
    0.7809    0.2901   -0.7565 C   0  0  0  0  0  0  0  0  0  0  0  0
    2.0601    0.7311   -0.9344 N   0  0  0  0  0  0  0  0  0  0  0  0
    3.2190   -0.0547   -0.5605 C   0  0  0  0  0  0  0  0  0  0  0  0
    4.4875    0.6496   -1.0385 C   0  0  0  0  0  0  0  0  0  0  0  0
    5.7371   -0.1742   -0.7431 C   0  0  0  0  0  0  0  0  0  0  0  0
    5.8727   -0.4729    0.6448 O   0  0  0  0  0  0  0  0  0  0  0  0
    6.4182    0.6016    1.3995 C   0  0  0  0  0  0  0  0  0  0  0  0
    0.5556   -1.0574   -0.6836 N   0  0  0  0  0  0  0  0  0  0  0  0
   -0.6566   -1.4456   -0.4988 C   0  0  0  0  0  0  0  0  0  0  0  0
   -1.1443   -2.7486   -0.3952 N   0  0  0  0  0  0  0  0  0  0  0  0
   -0.3336   -3.8066    0.1765 C   0  0  0  0  0  0  0  0  0  0  0  0
   -3.1353   -3.2354   -0.4926 H   0  0  0  0  0  0  0  0  0  0  0  0
   -3.8358   -1.0059    0.0924 H   0  0  0  0  0  0  0  0  0  0  0  0
   -3.5069    2.2961    1.7709 H   0  0  0  0  0  0  0  0  0  0  0  0
   -6.5308    1.3060   -2.0449 H   0  0  0  0  0  0  0  0  0  0  0  0
    2.1255    1.7280   -0.7649 H   0  0  0  0  0  0  0  0  0  0  0  0
    3.1637   -1.0501   -1.0162 H   0  0  0  0  0  0  0  0  0  0  0  0
    3.2367   -0.1799    0.5279 H   0  0  0  0  0  0  0  0  0  0  0  0
    4.4278    0.8336   -2.1183 H   0  0  0  0  0  0  0  0  0  0  0  0
    4.5576    1.6312   -0.5557 H   0  0  0  0  0  0  0  0  0  0  0  0
    6.6354    0.3332   -1.1137 H   0  0  0  0  0  0  0  0  0  0  0  0
    5.6714   -1.1322   -1.2707 H   0  0  0  0  0  0  0  0  0  0  0  0
    7.4049    0.8790    1.0165 H   0  0  0  0  0  0  0  0  0  0  0  0
    6.5298    0.2687    2.4350 H   0  0  0  0  0  0  0  0  0  0  0  0
    5.7506    1.4671    1.3873 H   0  0  0  0  0  0  0  0  0  0  0  0
    0.6214   -3.8890   -0.3522 H   0  0  0  0  0  0  0  0  0  0  0  0
   -0.1329   -3.6139    1.2356 H   0  0  0  0  0  0  0  0  0  0  0  0
   -0.8476   -4.7694    0.0894 H   0  0  0  0  0  0  0  0  0  0  0  0
  1  2  1  0
  2  3  2  0
  3  4  1  0
  4  5  2  3
  5  6  1  0
  6  7  2  0
  7  8  1  0
  8  9  1  0
  8 10  2  0
 10 11  1  0
 10 12  1  0
 12 13  2  0
 13 14  1  0
  4 15  1  0
 15 16  2  0
 16 17  1  0
 17 18  1  0
 18 19  1  0
 19 20  1  0
 20 21  1  0
 21 22  1  0
 16 23  1  0
 23 24  2  0
 24 25  1  0
 25 26  1  0
 25  1  1  0
 24  3  1  0
 13  6  1  0
  1 27  1  0
  2 28  1  0
  7 29  1  0
 12 30  1  0
 17 31  1  0
 18 32  1  0
 18 33  1  0
 19 34  1  0
 19 35  1  0
 20 36  1  0
 20 37  1  0
 22 38  1  0
 22 39  1  0
 22 40  1  0
 26 41  1  0
 26 42  1  0
 26 43  1  0
M  END
>  <ScrubInfo>  (5) 
{"isomerGroup": 0, "isomerId": 4, "confId": 0, "nr_conformers:": 1, "nr_isomers:": 9}

$$$$
_i5
     RDKit          3D

 43 45  0  0  0  0  0  0  0  0999 V2000
    0.7357    1.4647    1.9082 N   0  0  0  0  0  0  0  0  0  0  0  0
    0.6275    0.2814    1.2153 C   0  0  0  0  0  0  0  0  0  0  0  0
    1.7953   -0.4081    1.0640 N   0  0  0  0  0  0  0  0  0  0  0  0
    2.9849    0.1924    0.4654 C   0  0  0  0  0  0  0  0  0  0  0  0
    2.7265    0.7447   -0.9384 C   0  0  0  0  0  0  0  0  0  0  0  0
    2.2685   -0.3064   -1.9439 C   0  0  0  0  0  0  0  0  0  0  0  0
    3.2300   -1.3586   -1.9966 O   0  0  0  0  0  0  0  0  0  0  0  0
    2.8519   -2.3631   -2.9306 C   0  0  0  0  0  0  0  0  0  0  0  0
   -0.4711   -0.2102    0.7104 N   0  0  0  0  0  0  0  0  0  0  0  0
   -1.6501    0.5134    0.8398 C   0  0  0  0  0  0  0  0  0  0  0  0
   -2.7776    0.1491    0.3158 N   0  0  0  0  0  0  0  0  0  0  0  0
   -2.7894   -1.0326   -0.4468 C   0  0  0  0  0  0  0  0  0  0  0  0
   -3.2756   -2.2019    0.1495 C   0  0  0  0  0  0  0  0  0  0  0  0
   -3.3158   -3.4031   -0.5634 C   0  0  0  0  0  0  0  0  0  0  0  0
   -3.9147   -4.8033    0.2526 Cl  0  0  0  0  0  0  0  0  0  0  0  0
   -2.8787   -3.4404   -1.8923 C   0  0  0  0  0  0  0  0  0  0  0  0
   -2.8948   -4.8903   -2.8323 Cl  0  0  0  0  0  0  0  0  0  0  0  0
   -2.4092   -2.2772   -2.5058 C   0  0  0  0  0  0  0  0  0  0  0  0
   -2.3690   -1.0794   -1.7885 C   0  0  0  0  0  0  0  0  0  0  0  0
   -1.7876    0.3318   -2.6029 Cl  0  0  0  0  0  0  0  0  0  0  0  0
   -1.5956    1.7338    1.6008 C   0  0  0  0  0  0  0  0  0  0  0  0
   -2.5137    2.7088    2.0111 C   0  0  0  0  0  0  0  0  0  0  0  0
   -1.9346    3.6756    2.7427 N   0  0  0  0  0  0  0  0  0  0  0  0
   -0.6290    3.3090    2.7903 N   0  0  0  0  0  0  0  0  0  0  0  0
    0.3065    4.1395    3.5042 C   0  0  0  0  0  0  0  0  0  0  0  0
   -0.3987    2.1570    2.1087 C   0  0  0  0  0  0  0  0  0  0  0  0
    1.5979    1.6269    2.4107 H   0  0  0  0  0  0  0  0  0  0  0  0
    1.5973   -1.3005    0.6133 H   0  0  0  0  0  0  0  0  0  0  0  0
    3.3540    0.9985    1.1097 H   0  0  0  0  0  0  0  0  0  0  0  0
    3.7781   -0.5631    0.4376 H   0  0  0  0  0  0  0  0  0  0  0  0
    3.6653    1.1854   -1.2964 H   0  0  0  0  0  0  0  0  0  0  0  0
    1.9868    1.5527   -0.9022 H   0  0  0  0  0  0  0  0  0  0  0  0
    2.1786    0.1552   -2.9342 H   0  0  0  0  0  0  0  0  0  0  0  0
    1.2912   -0.7140   -1.6642 H   0  0  0  0  0  0  0  0  0  0  0  0
    1.8974   -2.8138   -2.6420 H   0  0  0  0  0  0  0  0  0  0  0  0
    2.7814   -1.9420   -3.9381 H   0  0  0  0  0  0  0  0  0  0  0  0
    3.6204   -3.1406   -2.9293 H   0  0  0  0  0  0  0  0  0  0  0  0
   -3.6154   -2.1650    1.1819 H   0  0  0  0  0  0  0  0  0  0  0  0
   -2.0782   -2.3015   -3.5409 H   0  0  0  0  0  0  0  0  0  0  0  0
   -3.5774    2.7576    1.8155 H   0  0  0  0  0  0  0  0  0  0  0  0
    0.2583    5.1499    3.0901 H   0  0  0  0  0  0  0  0  0  0  0  0
    0.0248    4.1448    4.5601 H   0  0  0  0  0  0  0  0  0  0  0  0
    1.3178    3.7430    3.3912 H   0  0  0  0  0  0  0  0  0  0  0  0
  1  2  1  0
  2  3  1  0
  3  4  1  0
  4  5  1  0
  5  6  1  0
  6  7  1  0
  7  8  1  0
  2  9  2  0
  9 10  1  0
 10 11  2  3
 11 12  1  0
 12 13  2  0
 13 14  1  0
 14 15  1  0
 14 16  2  0
 16 17  1  0
 16 18  1  0
 18 19  2  0
 19 20  1  0
 10 21  1  0
 21 22  1  0
 22 23  2  0
 23 24  1  0
 24 25  1  0
 24 26  1  0
 26  1  1  0
 19 12  1  0
 26 21  2  0
  1 27  1  0
  3 28  1  0
  4 29  1  0
  4 30  1  0
  5 31  1  0
  5 32  1  0
  6 33  1  0
  6 34  1  0
  8 35  1  0
  8 36  1  0
  8 37  1  0
 13 38  1  0
 18 39  1  0
 22 40  1  0
 25 41  1  0
 25 42  1  0
 25 43  1  0
M  END
>  <ScrubInfo>  (6) 
{"isomerGroup": 0, "isomerId": 5, "confId": 0, "nr_conformers:": 1, "nr_isomers:": 9}

$$$$
_i6
     RDKit          3D

 43 45  0  0  0  0  0  0  0  0999 V2000
   -1.8081   -4.2247    0.6274 N   0  0  0  0  0  0  0  0  0  0  0  0
   -2.5518   -3.0544    0.5220 C   0  0  0  0  0  0  0  0  0  0  0  0
   -1.8041   -1.9879    0.2051 C   0  0  0  0  0  0  0  0  0  0  0  0
   -1.9822   -0.5480   -0.0058 C   0  0  0  0  0  0  0  0  0  0  0  0
   -3.2480   -0.0044    0.0884 N   0  0  0  0  0  0  0  0  0  0  0  0
   -3.6931    1.3298   -0.0582 C   0  0  0  0  0  0  0  0  0  0  0  0
   -2.8490    2.4099   -0.3486 C   0  0  0  0  0  0  0  0  0  0  0  0
   -3.3512    3.7135   -0.4829 C   0  0  0  0  0  0  0  0  0  0  0  0
   -2.2275    4.9779   -0.8401 Cl  0  0  0  0  0  0  0  0  0  0  0  0
   -4.7184    3.9583   -0.3282 C   0  0  0  0  0  0  0  0  0  0  0  0
   -5.4049    5.5362   -0.4794 Cl  0  0  0  0  0  0  0  0  0  0  0  0
   -5.5809    2.9028   -0.0401 C   0  0  0  0  0  0  0  0  0  0  0  0
   -5.0707    1.6095    0.0918 C   0  0  0  0  0  0  0  0  0  0  0  0
   -6.1872    0.3318    0.4509 Cl  0  0  0  0  0  0  0  0  0  0  0  0
   -0.9130    0.1426   -0.2711 N   0  0  0  0  0  0  0  0  0  0  0  0
    0.3149   -0.4743   -0.3394 C   0  0  0  0  0  0  0  0  0  0  0  0
    1.2874    0.3395   -0.5544 N   0  0  0  0  0  0  0  0  0  0  0  0
    2.6327   -0.2201   -0.6511 C   0  0  0  0  0  0  0  0  0  0  0  0
    3.6028    0.9199   -0.9499 C   0  0  0  0  0  0  0  0  0  0  0  0
    5.0422    0.4180   -1.0044 C   0  0  0  0  0  0  0  0  0  0  0  0
    5.9536    1.4286   -1.4372 O   0  0  0  0  0  0  0  0  0  0  0  0
    6.2055    2.4219   -0.4529 C   0  0  0  0  0  0  0  0  0  0  0  0
    0.5698   -1.8200   -0.2063 N   0  0  0  0  0  0  0  0  0  0  0  0
   -0.4512   -2.5629    0.0418 C   0  0  0  0  0  0  0  0  0  0  0  0
   -0.5114   -3.9462    0.2105 N   0  0  0  0  0  0  0  0  0  0  0  0
    0.5953   -4.6776    0.7975 C   0  0  0  0  0  0  0  0  0  0  0  0
   -2.2536   -5.0381    0.1952 H   0  0  0  0  0  0  0  0  0  0  0  0
   -3.6166   -3.1002    0.6976 H   0  0  0  0  0  0  0  0  0  0  0  0
   -4.0098   -0.6397    0.3052 H   0  0  0  0  0  0  0  0  0  0  0  0
   -1.7796    2.2655   -0.4772 H   0  0  0  0  0  0  0  0  0  0  0  0
   -6.6457    3.0855    0.0814 H   0  0  0  0  0  0  0  0  0  0  0  0
    2.6898   -0.9615   -1.4576 H   0  0  0  0  0  0  0  0  0  0  0  0
    2.9172   -0.6993    0.2937 H   0  0  0  0  0  0  0  0  0  0  0  0
    3.3424    1.4032   -1.9000 H   0  0  0  0  0  0  0  0  0  0  0  0
    3.5016    1.6980   -0.1843 H   0  0  0  0  0  0  0  0  0  0  0  0
    5.1158   -0.3973   -1.7326 H   0  0  0  0  0  0  0  0  0  0  0  0
    5.3627    0.0149   -0.0363 H   0  0  0  0  0  0  0  0  0  0  0  0
    6.9987    3.0762   -0.8251 H   0  0  0  0  0  0  0  0  0  0  0  0
    5.3162    3.0330   -0.2781 H   0  0  0  0  0  0  0  0  0  0  0  0
    6.5434    1.9659    0.4826 H   0  0  0  0  0  0  0  0  0  0  0  0
    1.5213   -4.4826    0.2471 H   0  0  0  0  0  0  0  0  0  0  0  0
    0.7412   -4.3883    1.8435 H   0  0  0  0  0  0  0  0  0  0  0  0
    0.4034   -5.7548    0.7577 H   0  0  0  0  0  0  0  0  0  0  0  0
  1  2  1  0
  2  3  2  0
  3  4  1  0
  4  5  1  0
  5  6  1  0
  6  7  2  0
  7  8  1  0
  8  9  1  0
  8 10  2  0
 10 11  1  0
 10 12  1  0
 12 13  2  0
 13 14  1  0
  4 15  2  0
 15 16  1  0
 16 17  2  3
 17 18  1  0
 18 19  1  0
 19 20  1  0
 20 21  1  0
 21 22  1  0
 16 23  1  0
 23 24  2  0
 24 25  1  0
 25 26  1  0
 25  1  1  0
 24  3  1  0
 13  6  1  0
  1 27  1  0
  2 28  1  0
  5 29  1  0
  7 30  1  0
 12 31  1  0
 18 32  1  0
 18 33  1  0
 19 34  1  0
 19 35  1  0
 20 36  1  0
 20 37  1  0
 22 38  1  0
 22 39  1  0
 22 40  1  0
 26 41  1  0
 26 42  1  0
 26 43  1  0
M  END
>  <ScrubInfo>  (7) 
{"isomerGroup": 0, "isomerId": 6, "confId": 0, "nr_conformers:": 1, "nr_isomers:": 9}

$$$$
_i7
     RDKit          3D

 43 45  0  0  0  0  0  0  0  0999 V2000
   -1.7918   -4.3947    0.7639 N   0  0  0  0  0  0  0  0  0  0  0  0
   -2.5882   -3.3037    0.4343 C   0  0  0  0  0  0  0  0  0  0  0  0
   -1.8836   -2.1801    0.2562 C   0  0  0  0  0  0  0  0  0  0  0  0
   -2.1423   -0.7710   -0.0515 C   0  0  0  0  0  0  0  0  0  0  0  0
   -3.3647   -0.3835   -0.2649 N   0  0  0  0  0  0  0  0  0  0  0  0
   -3.6204    0.9627   -0.5753 C   0  0  0  0  0  0  0  0  0  0  0  0
   -4.0799    1.8014    0.4459 C   0  0  0  0  0  0  0  0  0  0  0  0
   -4.3832    3.1417    0.1877 C   0  0  0  0  0  0  0  0  0  0  0  0
   -4.9357    4.1082    1.5083 Cl  0  0  0  0  0  0  0  0  0  0  0  0
   -4.2351    3.6537   -1.1062 C   0  0  0  0  0  0  0  0  0  0  0  0
   -4.5883    5.2988   -1.4964 Cl  0  0  0  0  0  0  0  0  0  0  0  0
   -3.7889    2.8240   -2.1373 C   0  0  0  0  0  0  0  0  0  0  0  0
   -3.4901    1.4851   -1.8744 C   0  0  0  0  0  0  0  0  0  0  0  0
   -2.9484    0.4995   -3.1862 Cl  0  0  0  0  0  0  0  0  0  0  0  0
   -0.9907   -0.0261   -0.0614 N   0  0  0  0  0  0  0  0  0  0  0  0
    0.2796   -0.4838    0.1692 C   0  0  0  0  0  0  0  0  0  0  0  0
    1.2444    0.3771    0.1383 N   0  0  0  0  0  0  0  0  0  0  0  0
    2.5964   -0.1254    0.3845 C   0  0  0  0  0  0  0  0  0  0  0  0
    3.5849    1.0350    0.2981 C   0  0  0  0  0  0  0  0  0  0  0  0
    3.6768    1.6158   -1.1114 C   0  0  0  0  0  0  0  0  0  0  0  0
    4.6122    2.6963   -1.1666 O   0  0  0  0  0  0  0  0  0  0  0  0
    5.9578    2.2641   -1.3113 C   0  0  0  0  0  0  0  0  0  0  0  0
    0.5441   -1.8142    0.4230 N   0  0  0  0  0  0  0  0  0  0  0  0
   -0.4676   -2.6251    0.4490 C   0  0  0  0  0  0  0  0  0  0  0  0
   -0.4575   -4.0063    0.6604 N   0  0  0  0  0  0  0  0  0  0  0  0
    0.5252   -4.6230    1.5307 C   0  0  0  0  0  0  0  0  0  0  0  0
   -2.0512   -5.2491    0.2650 H   0  0  0  0  0  0  0  0  0  0  0  0
   -3.6585   -3.4280    0.3476 H   0  0  0  0  0  0  0  0  0  0  0  0
   -4.2072    1.3951    1.4471 H   0  0  0  0  0  0  0  0  0  0  0  0
   -3.6791    3.2176   -3.1453 H   0  0  0  0  0  0  0  0  0  0  0  0
   -1.0351    0.9624   -0.2495 H   0  0  0  0  0  0  0  0  0  0  0  0
    2.8720   -0.8936   -0.3483 H   0  0  0  0  0  0  0  0  0  0  0  0
    2.6617   -0.5592    1.3898 H   0  0  0  0  0  0  0  0  0  0  0  0
    3.3052    1.8307    0.9998 H   0  0  0  0  0  0  0  0  0  0  0  0
    4.5705    0.6818    0.6206 H   0  0  0  0  0  0  0  0  0  0  0  0
    2.7067    2.0312   -1.4040 H   0  0  0  0  0  0  0  0  0  0  0  0
    3.9373    0.8480   -1.8495 H   0  0  0  0  0  0  0  0  0  0  0  0
    6.5948    3.1500   -1.3834 H   0  0  0  0  0  0  0  0  0  0  0  0
    6.0768    1.6778   -2.2274 H   0  0  0  0  0  0  0  0  0  0  0  0
    6.2799    1.6802   -0.4453 H   0  0  0  0  0  0  0  0  0  0  0  0
    1.5397   -4.3624    1.2125 H   0  0  0  0  0  0  0  0  0  0  0  0
    0.3873   -4.2954    2.5664 H   0  0  0  0  0  0  0  0  0  0  0  0
    0.4340   -5.7135    1.4956 H   0  0  0  0  0  0  0  0  0  0  0  0
  1  2  1  0
  2  3  2  0
  3  4  1  0
  4  5  2  3
  5  6  1  0
  6  7  2  0
  7  8  1  0
  8  9  1  0
  8 10  2  0
 10 11  1  0
 10 12  1  0
 12 13  2  0
 13 14  1  0
  4 15  1  0
 15 16  1  0
 16 17  2  3
 17 18  1  0
 18 19  1  0
 19 20  1  0
 20 21  1  0
 21 22  1  0
 16 23  1  0
 23 24  2  0
 24 25  1  0
 25 26  1  0
 25  1  1  0
 24  3  1  0
 13  6  1  0
  1 27  1  0
  2 28  1  0
  7 29  1  0
 12 30  1  0
 15 31  1  0
 18 32  1  0
 18 33  1  0
 19 34  1  0
 19 35  1  0
 20 36  1  0
 20 37  1  0
 22 38  1  0
 22 39  1  0
 22 40  1  0
 26 41  1  0
 26 42  1  0
 26 43  1  0
M  END
>  <ScrubInfo>  (8) 
{"isomerGroup": 0, "isomerId": 7, "confId": 0, "nr_conformers:": 1, "nr_isomers:": 9}

$$$$
_i8
     RDKit          3D

 43 45  0  0  0  0  0  0  0  0999 V2000
    0.4992   -2.7008    0.5018 N   0  0  0  0  0  0  0  0  0  0  0  0
    0.6562   -1.4111    0.0322 C   0  0  0  0  0  0  0  0  0  0  0  0
    1.8172   -1.0580   -0.4069 N   0  0  0  0  0  0  0  0  0  0  0  0
    1.9982    0.3017   -0.9080 C   0  0  0  0  0  0  0  0  0  0  0  0
    3.4499    0.4538   -1.3650 C   0  0  0  0  0  0  0  0  0  0  0  0
    3.7363    1.8410   -1.9390 C   0  0  0  0  0  0  0  0  0  0  0  0
    4.4333    2.6900   -1.0279 O   0  0  0  0  0  0  0  0  0  0  0  0
    3.6412    3.1662    0.0481 C   0  0  0  0  0  0  0  0  0  0  0  0
   -0.4988   -0.6469    0.1016 N   0  0  0  0  0  0  0  0  0  0  0  0
   -1.7661   -0.9773    0.5521 C   0  0  0  0  0  0  0  0  0  0  0  0
   -2.8519   -0.2802    0.6273 N   0  0  0  0  0  0  0  0  0  0  0  0
   -2.8444    1.0555    0.1943 C   0  0  0  0  0  0  0  0  0  0  0  0
   -2.7903    2.0610    1.1660 C   0  0  0  0  0  0  0  0  0  0  0  0
   -2.8083    3.4106    0.8012 C   0  0  0  0  0  0  0  0  0  0  0  0
   -2.7162    4.5850    2.0639 Cl  0  0  0  0  0  0  0  0  0  0  0  0
   -2.8920    3.7665   -0.5493 C   0  0  0  0  0  0  0  0  0  0  0  0
   -2.9072    5.4118   -1.0738 Cl  0  0  0  0  0  0  0  0  0  0  0  0
   -2.9614    2.7732   -1.5288 C   0  0  0  0  0  0  0  0  0  0  0  0
   -2.9432    1.4265   -1.1585 C   0  0  0  0  0  0  0  0  0  0  0  0
   -3.0216    0.2397   -2.4111 Cl  0  0  0  0  0  0  0  0  0  0  0  0
   -1.8159   -2.3456    1.0089 C   0  0  0  0  0  0  0  0  0  0  0  0
   -2.8074   -3.1807    1.5442 C   0  0  0  0  0  0  0  0  0  0  0  0
   -2.3430   -4.4087    1.8217 N   0  0  0  0  0  0  0  0  0  0  0  0
   -1.0395   -4.3552    1.4519 N   0  0  0  0  0  0  0  0  0  0  0  0
   -0.2216   -5.5309    1.6106 C   0  0  0  0  0  0  0  0  0  0  0  0
   -0.6925   -3.1329    0.9631 C   0  0  0  0  0  0  0  0  0  0  0  0
    1.3368   -3.2694    0.4517 H   0  0  0  0  0  0  0  0  0  0  0  0
    1.7698    1.0286   -0.1221 H   0  0  0  0  0  0  0  0  0  0  0  0
    1.3296    0.4840   -1.7580 H   0  0  0  0  0  0  0  0  0  0  0  0
    4.1334    0.2241   -0.5389 H   0  0  0  0  0  0  0  0  0  0  0  0
    3.6322   -0.2936   -2.1480 H   0  0  0  0  0  0  0  0  0  0  0  0
    4.4066    1.7231   -2.7978 H   0  0  0  0  0  0  0  0  0  0  0  0
    2.8346    2.3414   -2.3107 H   0  0  0  0  0  0  0  0  0  0  0  0
    2.7068    3.6042   -0.3154 H   0  0  0  0  0  0  0  0  0  0  0  0
    4.2074    3.9416    0.5717 H   0  0  0  0  0  0  0  0  0  0  0  0
    3.4359    2.3614    0.7585 H   0  0  0  0  0  0  0  0  0  0  0  0
   -0.4087    0.2903   -0.2481 H   0  0  0  0  0  0  0  0  0  0  0  0
   -2.7418    1.7793    2.2162 H   0  0  0  0  0  0  0  0  0  0  0  0
   -3.0348    3.0475   -2.5789 H   0  0  0  0  0  0  0  0  0  0  0  0
   -3.8458   -2.9498    1.7449 H   0  0  0  0  0  0  0  0  0  0  0  0
    0.7989   -5.3247    1.2818 H   0  0  0  0  0  0  0  0  0  0  0  0
   -0.6509   -6.3328    1.0047 H   0  0  0  0  0  0  0  0  0  0  0  0
   -0.2201   -5.8091    2.6676 H   0  0  0  0  0  0  0  0  0  0  0  0
  1  2  1  0
  2  3  2  3
  3  4  1  0
  4  5  1  0
  5  6  1  0
  6  7  1  0
  7  8  1  0
  2  9  1  0
  9 10  1  0
 10 11  2  3
 11 12  1  0
 12 13  2  0
 13 14  1  0
 14 15  1  0
 14 16  2  0
 16 17  1  0
 16 18  1  0
 18 19  2  0
 19 20  1  0
 10 21  1  0
 21 22  1  0
 22 23  2  0
 23 24  1  0
 24 25  1  0
 24 26  1  0
 26  1  1  0
 19 12  1  0
 26 21  2  0
  1 27  1  0
  4 28  1  0
  4 29  1  0
  5 30  1  0
  5 31  1  0
  6 32  1  0
  6 33  1  0
  8 34  1  0
  8 35  1  0
  8 36  1  0
  9 37  1  0
 13 38  1  0
 18 39  1  0
 22 40  1  0
 25 41  1  0
 25 42  1  0
 25 43  1  0
M  END
>  <ScrubInfo>  (9) 
{"isomerGroup": 0, "isomerId": 8, "confId": 0, "nr_conformers:": 1, "nr_isomers:": 9}

$$$$
