REMARK SMILES Cc1cc(Cl)ccc1Nc1nc(NCC[NH+]2CCOCC2)nc2nccnc12
REMARK SMILES IDX 13 1 14 3 15 4 16 5 17 6 21 7 18 8 20 9 19 10 12 12 11 13
REMARK SMILES IDX 22 14 10 15 23 16 28 17 24 18 27 19 25 20 26 21 9 22 8 24
REMARK SMILES IDX 7 25 2 26 6 27 3 28 4 29 1 30 5 31
REMARK H PARENT 13 2 16 11 9 23
ROOT
ATOM      1  N   UNL     1       7.160  -0.159   5.573  1.00  0.00    -0.348 N 
ATOM      2  H   UNL     1       7.078   0.187   6.529  1.00  0.00     0.163 HD
ENDROOT
BRANCH   1   3
ATOM      3  C   UNL     1       6.330   0.483   4.569  1.00  0.00     0.177 C 
BRANCH   3   4
ATOM      4  C   UNL     1       7.017   0.462   3.180  1.00  0.00     0.283 C 
BRANCH   4   5
ATOM      5  N   UNL     1       6.013   0.405   2.037  1.00  0.00    -0.330 N 
ATOM      6  C   UNL     1       5.399  -0.985   1.820  1.00  0.00     0.291 C 
ATOM      7  C   UNL     1       6.583   0.917   0.716  1.00  0.00     0.291 C 
ATOM      8  C   UNL     1       6.387  -1.925   1.119  1.00  0.00     0.221 C 
ATOM      9  C   UNL     1       7.520  -0.119   0.086  1.00  0.00     0.221 C 
ATOM     10  O   UNL     1       6.837  -1.360  -0.120  1.00  0.00    -0.370 OA
ATOM     11  H   UNL     1       5.239   1.036   2.276  1.00  0.00     0.348 HD
ENDBRANCH   4   5
ENDBRANCH   3   4
ENDBRANCH   1   3
BRANCH   1  12
ATOM     12  C   UNL     1       7.039  -1.539   5.659  1.00  0.00     0.227 A 
ATOM     13  N   UNL     1       7.248  -2.071   6.853  1.00  0.00    -0.193 NA
ATOM     14  N   UNL     1       6.715  -2.239   4.575  1.00  0.00    -0.191 NA
ATOM     15  C   UNL     1       7.155  -3.412   6.973  1.00  0.00     0.164 A 
ATOM     16  C   UNL     1       6.617  -3.556   4.701  1.00  0.00     0.185 A 
ATOM     17  C   UNL     1       6.837  -4.243   5.902  1.00  0.00     0.150 A 
ATOM     18  N   UNL     1       6.285  -4.227   3.593  1.00  0.00    -0.233 NA
ATOM     19  N   UNL     1       6.754  -5.604   5.991  1.00  0.00    -0.247 NA
ATOM     20  C   UNL     1       6.194  -5.577   3.684  1.00  0.00     0.133 A 
ATOM     21  C   UNL     1       6.426  -6.256   4.860  1.00  0.00     0.132 A 
BRANCH  15  22
ATOM     22  N   UNL     1       7.318  -4.021   8.256  1.00  0.00    -0.338 N 
ATOM     23  H   UNL     1       7.773  -4.924   8.119  1.00  0.00     0.168 HD
BRANCH  22  24
ATOM     24  C   UNL     1       7.799  -3.350   9.404  1.00  0.00     0.043 A 
ATOM     25  C   UNL     1       9.117  -3.594   9.827  1.00  0.00     0.028 A 
ATOM     26  C   UNL     1       7.024  -2.392  10.088  1.00  0.00    -0.026 A 
ATOM     27  C   UNL     1       9.664  -2.901  10.909  1.00  0.00     0.022 A 
ATOM     28  C   UNL     1       7.591  -1.689  11.167  1.00  0.00     0.026 A 
ATOM     29  C   UNL     1       8.899  -1.948  11.571  1.00  0.00     0.041 A 
ATOM     30  C   UNL     1       5.605  -2.081   9.698  1.00  0.00     0.046 C 
ATOM     31  Cl  UNL     1       9.573  -1.079  12.893  1.00  0.00    -0.084 Cl
ENDBRANCH  22  24
ENDBRANCH  15  22
ENDBRANCH   1  12
TORSDOF 6
