_i0
     RDKit          3D

 51 54  0  0  0  0  0  0  0  0999 V2000
    7.0174    0.4621    3.1805 C   0  0  0  0  0  0  0  0  0  0  0  0
    6.0135    0.4049    2.0374 N   0  0  0  0  0  4  0  0  0  0  0  0
    5.3988   -0.9845    1.8203 C   0  0  0  0  0  0  0  0  0  0  0  0
    6.5833    0.9167    0.7163 C   0  0  0  0  0  0  0  0  0  0  0  0
    6.3305    0.4826    4.5688 C   0  0  0  0  0  0  0  0  0  0  0  0
    7.1601   -0.1588    5.5731 N   0  0  0  0  0  0  0  0  0  0  0  0
    7.0393   -1.5386    5.6590 C   0  0  0  0  0  0  0  0  0  0  0  0
    7.2479   -2.0705    6.8530 N   0  0  0  0  0  0  0  0  0  0  0  0
    6.7147   -2.2388    4.5755 N   0  0  0  0  0  0  0  0  0  0  0  0
    7.1547   -3.4122    6.9726 C   0  0  0  0  0  0  0  0  0  0  0  0
    6.6170   -3.5563    4.7009 C   0  0  0  0  0  0  0  0  0  0  0  0
    7.3183   -4.0213    8.2558 N   0  0  0  0  0  0  0  0  0  0  0  0
    6.8370   -4.2426    5.9016 C   0  0  0  0  0  0  0  0  0  0  0  0
    6.2846   -4.2266    3.5930 N   0  0  0  0  0  0  0  0  0  0  0  0
    7.7986   -3.3505    9.4038 C   0  0  0  0  0  0  0  0  0  0  0  0
    6.7540   -5.6041    5.9911 N   0  0  0  0  0  0  0  0  0  0  0  0
    6.1939   -5.5769    3.6839 C   0  0  0  0  0  0  0  0  0  0  0  0
    9.1167   -3.5941    9.8269 C   0  0  0  0  0  0  0  0  0  0  0  0
    7.0239   -2.3917   10.0884 C   0  0  0  0  0  0  0  0  0  0  0  0
    6.4257   -6.2561    4.8598 C   0  0  0  0  0  0  0  0  0  0  0  0
    9.6636   -2.9013   10.9088 C   0  0  0  0  0  0  0  0  0  0  0  0
    5.6050   -2.0814    9.6980 C   0  0  0  0  0  0  0  0  0  0  0  0
    7.5912   -1.6893   11.1667 C   0  0  0  0  0  0  0  0  0  0  0  0
    8.8992   -1.9481   11.5712 C   0  0  0  0  0  0  0  0  0  0  0  0
    9.5733   -1.0787   12.8934 Cl  0  0  0  0  0  0  0  0  0  0  0  0
    6.3866   -1.9254    1.1190 C   0  0  0  0  0  0  0  0  0  0  0  0
    6.8372   -1.3599   -0.1202 O   0  0  0  0  0  0  0  0  0  0  0  0
    7.5200   -0.1190    0.0862 C   0  0  0  0  0  0  0  0  0  0  0  0
    7.7193   -0.3660    3.0514 H   0  0  0  0  0  0  0  0  0  0  0  0
    7.5822    1.3941    3.0606 H   0  0  0  0  0  0  0  0  0  0  0  0
    5.2388    1.0357    2.2759 H   0  0  0  0  0  0  0  0  0  0  0  0
    4.5267   -0.8111    1.1796 H   0  0  0  0  0  0  0  0  0  0  0  0
    5.0506   -1.3657    2.7812 H   0  0  0  0  0  0  0  0  0  0  0  0
    5.7148    1.0917    0.0718 H   0  0  0  0  0  0  0  0  0  0  0  0
    7.0828    1.8708    0.9091 H   0  0  0  0  0  0  0  0  0  0  0  0
    5.3254    0.0441    4.5478 H   0  0  0  0  0  0  0  0  0  0  0  0
    6.1894    1.5308    4.8595 H   0  0  0  0  0  0  0  0  0  0  0  0
    7.0779    0.1872    6.5292 H   0  0  0  0  0  0  0  0  0  0  0  0
    7.7733   -4.9240    8.1192 H   0  0  0  0  0  0  0  0  0  0  0  0
    5.9283   -6.1013    2.7716 H   0  0  0  0  0  0  0  0  0  0  0  0
    9.7368   -4.3197    9.3062 H   0  0  0  0  0  0  0  0  0  0  0  0
    6.3533   -7.3364    4.9256 H   0  0  0  0  0  0  0  0  0  0  0  0
   10.6847   -3.1036   11.2208 H   0  0  0  0  0  0  0  0  0  0  0  0
    5.0263   -1.7531   10.5685 H   0  0  0  0  0  0  0  0  0  0  0  0
    5.0954   -2.9650    9.3010 H   0  0  0  0  0  0  0  0  0  0  0  0
    5.5833   -1.2839    8.9497 H   0  0  0  0  0  0  0  0  0  0  0  0
    7.0054   -0.9421   11.6976 H   0  0  0  0  0  0  0  0  0  0  0  0
    7.2556   -2.1572    1.7425 H   0  0  0  0  0  0  0  0  0  0  0  0
    5.8868   -2.8703    0.8845 H   0  0  0  0  0  0  0  0  0  0  0  0
    8.4121   -0.2886    0.6995 H   0  0  0  0  0  0  0  0  0  0  0  0
    7.8555    0.2392   -0.8921 H   0  0  0  0  0  0  0  0  0  0  0  0
  1  2  1  0
  2  3  1  0
  2  4  1  0
  5  1  1  0
  6  5  1  0
  7  6  1  0
  8  7  2  0
  7  9  1  0
 10  8  1  0
  9 11  2  0
 12 10  1  0
 13 10  2  0
 11 14  1  0
 13 11  1  0
 15 12  1  0
 16 13  1  0
 14 17  2  0
 18 15  2  0
 15 19  1  0
 20 16  2  0
 17 20  1  0
 21 18  1  0
 22 19  1  0
 19 23  2  0
 24 21  2  0
 23 24  1  0
 24 25  1  0
  3 26  1  0
 26 27  1  0
 27 28  1  0
 28  4  1  0
  1 29  1  0
  1 30  1  0
  2 31  1  0
  3 32  1  0
  3 33  1  0
  4 34  1  0
  4 35  1  0
  5 36  1  0
  5 37  1  0
  6 38  1  0
 12 39  1  0
 17 40  1  0
 18 41  1  0
 20 42  1  0
 21 43  1  0
 22 44  1  0
 22 45  1  0
 22 46  1  0
 23 47  1  0
 26 48  1  0
 26 49  1  0
 28 50  1  0
 28 51  1  0
M  CHG  1   2   1
M  END
>  <ScrubInfo>  (1) 
{"isomerGroup": 0, "isomerId": 0, "confId": 0, "nr_conformers:": 1, "nr_isomers:": 9}

$$$$
_i1
     RDKit          3D

 51 54  0  0  0  0  0  0  0  0999 V2000
    1.3008   -1.9262   -0.3620 N   0  0  0  0  0  0  0  0  0  0  0  0
    1.9139   -2.5049   -1.4496 C   0  0  0  0  0  0  0  0  0  0  0  0
    3.2420   -2.9079   -1.4165 N   0  0  0  0  0  0  0  0  0  0  0  0
    4.3340   -2.2785   -0.7780 C   0  0  0  0  0  0  0  0  0  0  0  0
    4.2907   -0.9357   -0.3683 C   0  0  0  0  0  0  0  0  0  0  0  0
    5.3799   -0.3391    0.2729 C   0  0  0  0  0  0  0  0  0  0  0  0
    6.5299   -1.0807    0.5128 C   0  0  0  0  0  0  0  0  0  0  0  0
    7.8712   -0.3482    1.3006 Cl  0  0  0  0  0  0  0  0  0  0  0  0
    6.6008   -2.4128    0.1145 C   0  0  0  0  0  0  0  0  0  0  0  0
    5.5092   -3.0233   -0.5284 C   0  0  0  0  0  0  0  0  0  0  0  0
    5.6209   -4.4693   -0.9342 C   0  0  0  0  0  0  0  0  0  0  0  0
    1.1687   -2.7351   -2.5589 C   0  0  0  0  0  0  0  0  0  0  0  0
    1.6719   -3.3321   -3.6943 N   0  0  0  0  0  0  0  0  0  0  0  0
    0.8297   -3.4623   -4.6647 C   0  0  0  0  0  0  0  0  0  0  0  0
   -0.5925   -3.0140   -4.5681 C   0  0  0  0  0  0  0  0  0  0  0  0
   -1.0911   -2.4621   -3.5112 N   0  0  0  0  0  0  0  0  0  0  0  0
   -0.2618   -2.2685   -2.4303 C   0  0  0  0  0  0  0  0  0  0  0  0
   -0.8138   -1.7089   -1.4043 N   0  0  0  0  0  0  0  0  0  0  0  0
    0.0032   -1.5305   -0.3197 C   0  0  0  0  0  0  0  0  0  0  0  0
   -0.4832   -1.0038    0.7554 N   0  0  0  0  0  0  0  0  0  0  0  0
   -1.8733   -0.5403    0.7168 C   0  0  0  0  0  0  0  0  0  0  0  0
   -2.8568   -1.7139    0.8404 C   0  0  0  0  0  0  0  0  0  0  0  0
   -4.1627   -1.4288    0.1189 N   0  0  0  0  0  4  0  0  0  0  0  0
   -5.2743   -2.3510    0.6039 C   0  0  0  0  0  0  0  0  0  0  0  0
   -6.5659   -2.0529   -0.1637 C   0  0  0  0  0  0  0  0  0  0  0  0
   -6.3715   -2.2070   -1.5731 O   0  0  0  0  0  0  0  0  0  0  0  0
   -5.3759   -1.3060   -2.0703 C   0  0  0  0  0  0  0  0  0  0  0  0
   -4.0177   -1.5520   -1.4032 C   0  0  0  0  0  0  0  0  0  0  0  0
    1.8563   -1.8449    0.4793 H   0  0  0  0  0  0  0  0  0  0  0  0
    3.5210   -3.3719   -2.2842 H   0  0  0  0  0  0  0  0  0  0  0  0
    3.4220   -0.3164   -0.5741 H   0  0  0  0  0  0  0  0  0  0  0  0
    5.3264    0.7046    0.5716 H   0  0  0  0  0  0  0  0  0  0  0  0
    7.5088   -2.9801    0.3081 H   0  0  0  0  0  0  0  0  0  0  0  0
    4.8025   -5.0522   -0.4991 H   0  0  0  0  0  0  0  0  0  0  0  0
    6.5592   -4.9142   -0.5860 H   0  0  0  0  0  0  0  0  0  0  0  0
    5.5943   -4.5588   -2.0248 H   0  0  0  0  0  0  0  0  0  0  0  0
    1.1165   -3.9193   -5.6246 H   0  0  0  0  0  0  0  0  0  0  0  0
   -1.2012   -3.1905   -5.4684 H   0  0  0  0  0  0  0  0  0  0  0  0
   -2.0503    0.0824   -0.1674 H   0  0  0  0  0  0  0  0  0  0  0  0
   -2.0256    0.1332    1.5690 H   0  0  0  0  0  0  0  0  0  0  0  0
   -2.4699   -2.6604    0.4485 H   0  0  0  0  0  0  0  0  0  0  0  0
   -3.1005   -1.8636    1.8987 H   0  0  0  0  0  0  0  0  0  0  0  0
   -4.4378   -0.4624    0.3320 H   0  0  0  0  0  0  0  0  0  0  0  0
   -5.4043   -2.1756    1.6760 H   0  0  0  0  0  0  0  0  0  0  0  0
   -4.9345   -3.3766    0.4230 H   0  0  0  0  0  0  0  0  0  0  0  0
   -7.3476   -2.7548    0.1429 H   0  0  0  0  0  0  0  0  0  0  0  0
   -6.9269   -1.0389    0.0443 H   0  0  0  0  0  0  0  0  0  0  0  0
   -5.7121   -0.2744   -1.9129 H   0  0  0  0  0  0  0  0  0  0  0  0
   -5.2907   -1.4672   -3.1495 H   0  0  0  0  0  0  0  0  0  0  0  0
   -3.6597   -2.5668   -1.6052 H   0  0  0  0  0  0  0  0  0  0  0  0
   -3.2950   -0.8062   -1.7385 H   0  0  0  0  0  0  0  0  0  0  0  0
  1  2  1  0
  2  3  1  0
  3  4  1  0
  4  5  2  0
  5  6  1  0
  6  7  2  0
  7  8  1  0
  7  9  1  0
  9 10  2  0
 10 11  1  0
  2 12  2  0
 12 13  1  0
 13 14  2  0
 14 15  1  0
 15 16  2  0
 16 17  1  0
 17 18  2  0
 18 19  1  0
 19 20  2  3
 20 21  1  0
 21 22  1  0
 22 23  1  0
 23 24  1  0
 24 25  1  0
 25 26  1  0
 26 27  1  0
 27 28  1  0
 19  1  1  0
 28 23  1  0
 10  4  1  0
 17 12  1  0
  1 29  1  0
  3 30  1  0
  5 31  1  0
  6 32  1  0
  9 33  1  0
 11 34  1  0
 11 35  1  0
 11 36  1  0
 14 37  1  0
 15 38  1  0
 21 39  1  0
 21 40  1  0
 22 41  1  0
 22 42  1  0
 23 43  1  0
 24 44  1  0
 24 45  1  0
 25 46  1  0
 25 47  1  0
 27 48  1  0
 27 49  1  0
 28 50  1  0
 28 51  1  0
M  CHG  1  23   1
M  END
>  <ScrubInfo>  (2) 
{"isomerGroup": 0, "isomerId": 1, "confId": 0, "nr_conformers:": 1, "nr_isomers:": 9}

$$$$
_i2
     RDKit          3D

 51 54  0  0  0  0  0  0  0  0999 V2000
    0.5880    2.9660    2.6717 N   0  0  0  0  0  0  0  0  0  0  0  0
    1.4887    2.0023    2.3322 C   0  0  0  0  0  0  0  0  0  0  0  0
    2.4737    1.7995    3.2549 N   0  0  0  0  0  0  0  0  0  0  0  0
    3.3459    0.6212    3.2607 C   0  0  0  0  0  0  0  0  0  0  0  0
    4.3626    0.5969    2.0960 C   0  0  0  0  0  0  0  0  0  0  0  0
    3.7586    0.1485    0.7828 N   0  0  0  0  0  4  0  0  0  0  0  0
    4.5416    0.6548   -0.4163 C   0  0  0  0  0  0  0  0  0  0  0  0
    3.8887    0.1828   -1.7192 C   0  0  0  0  0  0  0  0  0  0  0  0
    3.7714   -1.2441   -1.7445 O   0  0  0  0  0  0  0  0  0  0  0  0
    2.9307   -1.7078   -0.6819 C   0  0  0  0  0  0  0  0  0  0  0  0
    3.5284   -1.3497    0.6830 C   0  0  0  0  0  0  0  0  0  0  0  0
    1.4425    1.3430    1.2118 N   0  0  0  0  0  0  0  0  0  0  0  0
    0.3668    1.6659    0.3510 C   0  0  0  0  0  0  0  0  0  0  0  0
    0.3786    0.9565   -0.8004 N   0  0  0  0  0  0  0  0  0  0  0  0
   -0.6407    1.2374   -1.6557 C   0  0  0  0  0  0  0  0  0  0  0  0
   -1.6189    2.1876   -1.3842 C   0  0  0  0  0  0  0  0  0  0  0  0
   -1.6303    2.9103   -0.2426 N   0  0  0  0  0  0  0  0  0  0  0  0
   -0.6197    2.6253    0.6138 C   0  0  0  0  0  0  0  0  0  0  0  0
   -0.4934    3.3628    1.9050 C   0  0  0  0  0  0  0  0  0  0  0  0
   -1.3568    4.2881    2.2035 N   0  0  0  0  0  0  0  0  0  0  0  0
   -1.2420    4.9809    3.4158 C   0  0  0  0  0  0  0  0  0  0  0  0
   -1.8697    4.4649    4.5563 C   0  0  0  0  0  0  0  0  0  0  0  0
   -1.7600    5.1163    5.7855 C   0  0  0  0  0  0  0  0  0  0  0  0
   -1.0271    6.2960    5.8742 C   0  0  0  0  0  0  0  0  0  0  0  0
   -0.8727    7.0929    7.3900 Cl  0  0  0  0  0  0  0  0  0  0  0  0
   -0.4155    6.8353    4.7424 C   0  0  0  0  0  0  0  0  0  0  0  0
   -0.5281    6.1899    3.5003 C   0  0  0  0  0  0  0  0  0  0  0  0
    0.1104    6.7944    2.2814 C   0  0  0  0  0  0  0  0  0  0  0  0
    0.7390    3.5014    3.5151 H   0  0  0  0  0  0  0  0  0  0  0  0
    2.2304    2.0924    4.1993 H   0  0  0  0  0  0  0  0  0  0  0  0
    3.9202    0.6542    4.1940 H   0  0  0  0  0  0  0  0  0  0  0  0
    2.7426   -0.2915    3.2970 H   0  0  0  0  0  0  0  0  0  0  0  0
    4.7712    1.6021    1.9421 H   0  0  0  0  0  0  0  0  0  0  0  0
    5.1884   -0.0887    2.3147 H   0  0  0  0  0  0  0  0  0  0  0  0
    2.8158    0.5937    0.7248 H   0  0  0  0  0  0  0  0  0  0  0  0
    5.5549    0.2503   -0.3175 H   0  0  0  0  0  0  0  0  0  0  0  0
    4.5630    1.7475   -0.3621 H   0  0  0  0  0  0  0  0  0  0  0  0
    2.9017    0.6349   -1.8607 H   0  0  0  0  0  0  0  0  0  0  0  0
    4.5115    0.4789   -2.5692 H   0  0  0  0  0  0  0  0  0  0  0  0
    1.9244   -1.2942   -0.8020 H   0  0  0  0  0  0  0  0  0  0  0  0
    2.8526   -2.7958   -0.7731 H   0  0  0  0  0  0  0  0  0  0  0  0
    4.5070   -1.8240    0.8136 H   0  0  0  0  0  0  0  0  0  0  0  0
    2.8559   -1.6443    1.4925 H   0  0  0  0  0  0  0  0  0  0  0  0
   -0.6547    0.6712   -2.5821 H   0  0  0  0  0  0  0  0  0  0  0  0
   -2.4224    2.3928   -2.0848 H   0  0  0  0  0  0  0  0  0  0  0  0
   -2.4606    3.5552    4.4788 H   0  0  0  0  0  0  0  0  0  0  0  0
   -2.2576    4.7078    6.6613 H   0  0  0  0  0  0  0  0  0  0  0  0
    0.1355    7.7699    4.8253 H   0  0  0  0  0  0  0  0  0  0  0  0
   -0.6234    6.8971    1.4753 H   0  0  0  0  0  0  0  0  0  0  0  0
    0.5064    7.7937    2.4910 H   0  0  0  0  0  0  0  0  0  0  0  0
    0.9410    6.1686    1.9401 H   0  0  0  0  0  0  0  0  0  0  0  0
  1  2  1  0
  2  3  1  0
  3  4  1  0
  4  5  1  0
  5  6  1  0
  6  7  1  0
  7  8  1  0
  8  9  1  0
  9 10  1  0
 10 11  1  0
  2 12  2  0
 12 13  1  0
 13 14  2  0
 14 15  1  0
 15 16  2  0
 16 17  1  0
 17 18  2  0
 18 19  1  0
 19 20  2  3
 20 21  1  0
 21 22  2  0
 22 23  1  0
 23 24  2  0
 24 25  1  0
 24 26  1  0
 26 27  2  0
 27 28  1  0
 19  1  1  0
 27 21  1  0
 11  6  1  0
 18 13  1  0
  1 29  1  0
  3 30  1  0
  4 31  1  0
  4 32  1  0
  5 33  1  0
  5 34  1  0
  6 35  1  0
  7 36  1  0
  7 37  1  0
  8 38  1  0
  8 39  1  0
 10 40  1  0
 10 41  1  0
 11 42  1  0
 11 43  1  0
 15 44  1  0
 16 45  1  0
 22 46  1  0
 23 47  1  0
 26 48  1  0
 28 49  1  0
 28 50  1  0
 28 51  1  0
M  CHG  1   6   1
M  END
>  <ScrubInfo>  (3) 
{"isomerGroup": 0, "isomerId": 2, "confId": 0, "nr_conformers:": 1, "nr_isomers:": 9}

$$$$
_i3
     RDKit          3D

 51 54  0  0  0  0  0  0  0  0999 V2000
    1.2925    1.9838   -4.9451 N   0  0  0  0  0  0  0  0  0  0  0  0
    1.2465    0.6950   -4.5112 C   0  0  0  0  0  0  0  0  0  0  0  0
    1.7452    0.2417   -3.4173 N   0  0  0  0  0  0  0  0  0  0  0  0
    2.4472    1.1135   -2.4957 C   0  0  0  0  0  0  0  0  0  0  0  0
    2.9358    0.2352   -1.3317 C   0  0  0  0  0  0  0  0  0  0  0  0
    3.5157    1.0530   -0.1952 N   0  0  0  0  0  4  0  0  0  0  0  0
    4.8444    1.7166   -0.5426 C   0  0  0  0  0  0  0  0  0  0  0  0
    5.3729    2.4829    0.6759 C   0  0  0  0  0  0  0  0  0  0  0  0
    5.5193    1.6173    1.8054 O   0  0  0  0  0  0  0  0  0  0  0  0
    4.2716    1.0322    2.1919 C   0  0  0  0  0  0  0  0  0  0  0  0
    3.6881    0.1865    1.0555 C   0  0  0  0  0  0  0  0  0  0  0  0
    0.6301   -0.2870   -5.2419 N   0  0  0  0  0  0  0  0  0  0  0  0
    0.0633   -0.0154   -6.3842 C   0  0  0  0  0  0  0  0  0  0  0  0
   -0.5746   -0.9382   -7.1955 N   0  0  0  0  0  0  0  0  0  0  0  0
   -0.8747   -2.2996   -6.9921 C   0  0  0  0  0  0  0  0  0  0  0  0
   -0.6456   -2.9515   -5.7703 C   0  0  0  0  0  0  0  0  0  0  0  0
   -0.9270   -4.3109   -5.5967 C   0  0  0  0  0  0  0  0  0  0  0  0
   -1.4383   -5.0496   -6.6533 C   0  0  0  0  0  0  0  0  0  0  0  0
   -1.7858   -6.7203   -6.4432 Cl  0  0  0  0  0  0  0  0  0  0  0  0
   -1.6668   -4.4402   -7.8821 C   0  0  0  0  0  0  0  0  0  0  0  0
   -1.3836   -3.0727   -8.0669 C   0  0  0  0  0  0  0  0  0  0  0  0
   -1.6412   -2.4744   -9.4262 C   0  0  0  0  0  0  0  0  0  0  0  0
    0.0784    1.3781   -6.9253 C   0  0  0  0  0  0  0  0  0  0  0  0
   -0.5211    1.6158   -8.1236 N   0  0  0  0  0  0  0  0  0  0  0  0
   -0.4504    2.9072   -8.5194 C   0  0  0  0  0  0  0  0  0  0  0  0
    0.1801    3.8867   -7.7599 C   0  0  0  0  0  0  0  0  0  0  0  0
    0.7739    3.6272   -6.5641 N   0  0  0  0  0  0  0  0  0  0  0  0
    0.7136    2.3418   -6.1519 C   0  0  0  0  0  0  0  0  0  0  0  0
    1.7326    2.7317   -4.4425 H   0  0  0  0  0  0  0  0  0  0  0  0
    1.7766    1.8925   -2.1152 H   0  0  0  0  0  0  0  0  0  0  0  0
    3.2998    1.5894   -2.9911 H   0  0  0  0  0  0  0  0  0  0  0  0
    3.7005   -0.4795   -1.6573 H   0  0  0  0  0  0  0  0  0  0  0  0
    2.0906   -0.3257   -0.9152 H   0  0  0  0  0  0  0  0  0  0  0  0
    2.8355    1.7862    0.0421 H   0  0  0  0  0  0  0  0  0  0  0  0
    4.6721    2.3974   -1.3798 H   0  0  0  0  0  0  0  0  0  0  0  0
    5.5312    0.9151   -0.8346 H   0  0  0  0  0  0  0  0  0  0  0  0
    6.3575    2.9032    0.4485 H   0  0  0  0  0  0  0  0  0  0  0  0
    4.7081    3.3137    0.9400 H   0  0  0  0  0  0  0  0  0  0  0  0
    4.4565    0.3999    3.0657 H   0  0  0  0  0  0  0  0  0  0  0  0
    3.5774    1.8252    2.4936 H   0  0  0  0  0  0  0  0  0  0  0  0
    2.7028   -0.2069    1.3230 H   0  0  0  0  0  0  0  0  0  0  0  0
    4.3653   -0.6295    0.7807 H   0  0  0  0  0  0  0  0  0  0  0  0
   -0.9511   -0.5419   -8.0536 H   0  0  0  0  0  0  0  0  0  0  0  0
   -0.2525   -2.4140   -4.9133 H   0  0  0  0  0  0  0  0  0  0  0  0
   -0.7427   -4.7789   -4.6339 H   0  0  0  0  0  0  0  0  0  0  0  0
   -2.0636   -5.0327   -8.7039 H   0  0  0  0  0  0  0  0  0  0  0  0
   -1.9766   -3.2302  -10.1445 H   0  0  0  0  0  0  0  0  0  0  0  0
   -0.7242   -2.0301   -9.8267 H   0  0  0  0  0  0  0  0  0  0  0  0
   -2.4229   -1.7108   -9.3612 H   0  0  0  0  0  0  0  0  0  0  0  0
   -0.9163    3.1438   -9.4710 H   0  0  0  0  0  0  0  0  0  0  0  0
    0.2245    4.9177   -8.0977 H   0  0  0  0  0  0  0  0  0  0  0  0
  1  2  1  0
  2  3  2  3
  3  4  1  0
  4  5  1  0
  5  6  1  0
  6  7  1  0
  7  8  1  0
  8  9  1  0
  9 10  1  0
 10 11  1  0
  2 12  1  0
 12 13  2  0
 13 14  1  0
 14 15  1  0
 15 16  2  0
 16 17  1  0
 17 18  2  0
 18 19  1  0
 18 20  1  0
 20 21  2  0
 21 22  1  0
 13 23  1  0
 23 24  2  0
 24 25  1  0
 25 26  2  0
 26 27  1  0
 27 28  2  0
 28  1  1  0
 11  6  1  0
 21 15  1  0
 28 23  1  0
  1 29  1  0
  4 30  1  0
  4 31  1  0
  5 32  1  0
  5 33  1  0
  6 34  1  0
  7 35  1  0
  7 36  1  0
  8 37  1  0
  8 38  1  0
 10 39  1  0
 10 40  1  0
 11 41  1  0
 11 42  1  0
 14 43  1  0
 16 44  1  0
 17 45  1  0
 20 46  1  0
 22 47  1  0
 22 48  1  0
 22 49  1  0
 25 50  1  0
 26 51  1  0
M  CHG  1   6   1
M  END
>  <ScrubInfo>  (4) 
{"isomerGroup": 0, "isomerId": 3, "confId": 0, "nr_conformers:": 1, "nr_isomers:": 9}

$$$$
_i4
     RDKit          3D

 51 54  0  0  0  0  0  0  0  0999 V2000
    4.2802   -2.8858   -5.3471 N   0  0  0  0  0  0  0  0  0  0  0  0
    3.1381   -2.3241   -4.8942 C   0  0  0  0  0  0  0  0  0  0  0  0
    2.9563   -2.3358   -3.5404 N   0  0  0  0  0  0  0  0  0  0  0  0
    3.9038   -1.6413   -2.6746 C   0  0  0  0  0  0  0  0  0  0  0  0
    3.4759   -1.7701   -1.1996 C   0  0  0  0  0  0  0  0  0  0  0  0
    4.4812   -1.1590   -0.2389 N   0  0  0  0  0  4  0  0  0  0  0  0
    4.1782   -1.5821    1.2045 C   0  0  0  0  0  0  0  0  0  0  0  0
    5.2052   -0.9568    2.1535 C   0  0  0  0  0  0  0  0  0  0  0  0
    5.2037    0.4687    2.0358 O   0  0  0  0  0  0  0  0  0  0  0  0
    5.5539    0.8946    0.7163 C   0  0  0  0  0  0  0  0  0  0  0  0
    4.5496    0.3682   -0.3158 C   0  0  0  0  0  0  0  0  0  0  0  0
    2.2188   -1.7719   -5.6169 N   0  0  0  0  0  0  0  0  0  0  0  0
    2.3942   -1.7330   -6.9950 C   0  0  0  0  0  0  0  0  0  0  0  0
    1.5493   -1.0922   -7.7474 N   0  0  0  0  0  0  0  0  0  0  0  0
    0.4571   -0.4385   -7.1571 C   0  0  0  0  0  0  0  0  0  0  0  0
   -0.7032   -1.1650   -6.8581 C   0  0  0  0  0  0  0  0  0  0  0  0
   -1.8076   -0.5393   -6.2782 C   0  0  0  0  0  0  0  0  0  0  0  0
   -1.7584    0.8246   -6.0075 C   0  0  0  0  0  0  0  0  0  0  0  0
   -3.1084    1.5987   -5.2736 Cl  0  0  0  0  0  0  0  0  0  0  0  0
   -0.6222    1.5694   -6.3240 C   0  0  0  0  0  0  0  0  0  0  0  0
    0.4913    0.9466   -6.9106 C   0  0  0  0  0  0  0  0  0  0  0  0
    1.7039    1.7569   -7.2699 C   0  0  0  0  0  0  0  0  0  0  0  0
    3.5653   -2.4303   -7.6057 C   0  0  0  0  0  0  0  0  0  0  0  0
    3.6988   -2.4899   -8.9568 N   0  0  0  0  0  0  0  0  0  0  0  0
    4.7774   -3.1778   -9.3884 C   0  0  0  0  0  0  0  0  0  0  0  0
    5.6769   -3.7719   -8.5143 C   0  0  0  0  0  0  0  0  0  0  0  0
    5.5459   -3.7040   -7.1637 N   0  0  0  0  0  0  0  0  0  0  0  0
    4.4669   -3.0184   -6.7192 C   0  0  0  0  0  0  0  0  0  0  0  0
    4.8679   -3.4818   -4.7887 H   0  0  0  0  0  0  0  0  0  0  0  0
    2.0059   -1.9795   -3.4032 H   0  0  0  0  0  0  0  0  0  0  0  0
    3.9468   -0.5869   -2.9673 H   0  0  0  0  0  0  0  0  0  0  0  0
    4.9063   -2.0667   -2.7975 H   0  0  0  0  0  0  0  0  0  0  0  0
    3.3924   -2.8309   -0.9358 H   0  0  0  0  0  0  0  0  0  0  0  0
    2.5078   -1.2893   -1.0179 H   0  0  0  0  0  0  0  0  0  0  0  0
    5.4142   -1.5306   -0.4639 H   0  0  0  0  0  0  0  0  0  0  0  0
    3.1654   -1.2292    1.4269 H   0  0  0  0  0  0  0  0  0  0  0  0
    4.2202   -2.6748    1.2418 H   0  0  0  0  0  0  0  0  0  0  0  0
    4.9520   -1.2065    3.1885 H   0  0  0  0  0  0  0  0  0  0  0  0
    6.2140   -1.3371    1.9545 H   0  0  0  0  0  0  0  0  0  0  0  0
    5.5523    1.9890    0.7075 H   0  0  0  0  0  0  0  0  0  0  0  0
    6.5720    0.5600    0.4850 H   0  0  0  0  0  0  0  0  0  0  0  0
    4.8599    0.6392   -1.3277 H   0  0  0  0  0  0  0  0  0  0  0  0
    3.5393    0.7380   -0.1112 H   0  0  0  0  0  0  0  0  0  0  0  0
   -0.7389   -2.2277   -7.0827 H   0  0  0  0  0  0  0  0  0  0  0  0
   -2.6978   -1.1186   -6.0506 H   0  0  0  0  0  0  0  0  0  0  0  0
   -0.6082    2.6382   -6.1255 H   0  0  0  0  0  0  0  0  0  0  0  0
    1.5432    2.8237   -7.0817 H   0  0  0  0  0  0  0  0  0  0  0  0
    2.5634    1.4386   -6.6713 H   0  0  0  0  0  0  0  0  0  0  0  0
    1.9383    1.6430   -8.3333 H   0  0  0  0  0  0  0  0  0  0  0  0
    4.9018   -3.2428  -10.4644 H   0  0  0  0  0  0  0  0  0  0  0  0
    6.5367   -4.3229   -8.8820 H   0  0  0  0  0  0  0  0  0  0  0  0
  1  2  1  0
  2  3  1  0
  3  4  1  0
  4  5  1  0
  5  6  1  0
  6  7  1  0
  7  8  1  0
  8  9  1  0
  9 10  1  0
 10 11  1  0
  2 12  2  0
 12 13  1  0
 13 14  2  3
 14 15  1  0
 15 16  2  0
 16 17  1  0
 17 18  2  0
 18 19  1  0
 18 20  1  0
 20 21  2  0
 21 22  1  0
 13 23  1  0
 23 24  2  0
 24 25  1  0
 25 26  2  0
 26 27  1  0
 27 28  2  0
 28  1  1  0
 11  6  1  0
 21 15  1  0
 28 23  1  0
  1 29  1  0
  3 30  1  0
  4 31  1  0
  4 32  1  0
  5 33  1  0
  5 34  1  0
  6 35  1  0
  7 36  1  0
  7 37  1  0
  8 38  1  0
  8 39  1  0
 10 40  1  0
 10 41  1  0
 11 42  1  0
 11 43  1  0
 16 44  1  0
 17 45  1  0
 20 46  1  0
 22 47  1  0
 22 48  1  0
 22 49  1  0
 25 50  1  0
 26 51  1  0
M  CHG  1   6   1
M  END
>  <ScrubInfo>  (5) 
{"isomerGroup": 0, "isomerId": 4, "confId": 0, "nr_conformers:": 1, "nr_isomers:": 9}

$$$$
_i5
     RDKit          3D

 51 54  0  0  0  0  0  0  0  0999 V2000
   -2.4434   -5.8782   -2.1919 N   0  0  0  0  0  0  0  0  0  0  0  0
   -1.7155   -6.9627   -2.6071 C   0  0  0  0  0  0  0  0  0  0  0  0
   -2.3195   -8.1013   -2.9851 C   0  0  0  0  0  0  0  0  0  0  0  0
   -3.6894   -8.2802   -2.9863 N   0  0  0  0  0  0  0  0  0  0  0  0
   -4.4136   -7.2552   -2.6140 C   0  0  0  0  0  0  0  0  0  0  0  0
   -5.9132   -7.3884   -2.5728 C   0  0  0  0  0  0  0  0  0  0  0  0
   -6.4030   -8.6397   -2.8803 N   0  0  0  0  0  0  0  0  0  0  0  0
   -7.7271   -9.0926   -3.0346 C   0  0  0  0  0  0  0  0  0  0  0  0
   -8.8329   -8.2297   -2.9716 C   0  0  0  0  0  0  0  0  0  0  0  0
  -10.1432   -8.7036   -3.0978 C   0  0  0  0  0  0  0  0  0  0  0  0
  -10.3720  -10.0594   -3.2804 C   0  0  0  0  0  0  0  0  0  0  0  0
  -11.9809  -10.6451   -3.4352 Cl  0  0  0  0  0  0  0  0  0  0  0  0
   -9.3009  -10.9447   -3.3344 C   0  0  0  0  0  0  0  0  0  0  0  0
   -7.9783  -10.4775   -3.2057 C   0  0  0  0  0  0  0  0  0  0  0  0
   -6.8622  -11.4893   -3.2613 C   0  0  0  0  0  0  0  0  0  0  0  0
   -6.5826   -6.3354   -2.2385 N   0  0  0  0  0  0  0  0  0  0  0  0
   -5.9447   -5.1615   -1.9744 C   0  0  0  0  0  0  0  0  0  0  0  0
   -6.7484   -4.1795   -1.7798 N   0  0  0  0  0  0  0  0  0  0  0  0
   -6.2383   -2.8459   -1.4905 C   0  0  0  0  0  0  0  0  0  0  0  0
   -6.1446   -2.6660    0.0235 C   0  0  0  0  0  0  0  0  0  0  0  0
   -5.8283   -1.2632    0.4904 N   0  0  0  0  0  4  0  0  0  0  0  0
   -4.4561   -0.7250    0.1207 C   0  0  0  0  0  0  0  0  0  0  0  0
   -4.4866    0.1111   -1.1611 C   0  0  0  0  0  0  0  0  0  0  0  0
   -5.4728    1.1420   -1.0722 O   0  0  0  0  0  0  0  0  0  0  0  0
   -6.7873    0.5887   -0.9649 C   0  0  0  0  0  0  0  0  0  0  0  0
   -6.9380   -0.2326    0.3191 C   0  0  0  0  0  0  0  0  0  0  0  0
   -4.5941   -4.9476   -1.8744 N   0  0  0  0  0  0  0  0  0  0  0  0
   -3.8154   -5.9292   -2.1956 C   0  0  0  0  0  0  0  0  0  0  0  0
   -1.9610   -5.0151   -1.9824 H   0  0  0  0  0  0  0  0  0  0  0  0
   -0.6366   -6.8420   -2.6154 H   0  0  0  0  0  0  0  0  0  0  0  0
   -1.7269   -8.9527   -3.3142 H   0  0  0  0  0  0  0  0  0  0  0  0
   -5.6831   -9.3139   -3.1312 H   0  0  0  0  0  0  0  0  0  0  0  0
   -8.7065   -7.1599   -2.8365 H   0  0  0  0  0  0  0  0  0  0  0  0
  -10.9742   -8.0049   -3.0527 H   0  0  0  0  0  0  0  0  0  0  0  0
   -9.4955  -12.0062   -3.4737 H   0  0  0  0  0  0  0  0  0  0  0  0
   -6.2562  -11.4380   -2.3509 H   0  0  0  0  0  0  0  0  0  0  0  0
   -6.2296  -11.3063   -4.1358 H   0  0  0  0  0  0  0  0  0  0  0  0
   -7.2460  -12.5121   -3.3391 H   0  0  0  0  0  0  0  0  0  0  0  0
   -5.2816   -2.6441   -1.9816 H   0  0  0  0  0  0  0  0  0  0  0  0
   -6.9565   -2.1389   -1.9116 H   0  0  0  0  0  0  0  0  0  0  0  0
   -5.3662   -3.3139    0.4434 H   0  0  0  0  0  0  0  0  0  0  0  0
   -7.0878   -2.9458    0.5080 H   0  0  0  0  0  0  0  0  0  0  0  0
   -5.7761   -1.3852    1.5102 H   0  0  0  0  0  0  0  0  0  0  0  0
   -3.7612   -1.5675    0.0533 H   0  0  0  0  0  0  0  0  0  0  0  0
   -4.1628   -0.0902    0.9646 H   0  0  0  0  0  0  0  0  0  0  0  0
   -3.5149    0.5957   -1.3001 H   0  0  0  0  0  0  0  0  0  0  0  0
   -4.6739   -0.4967   -2.0512 H   0  0  0  0  0  0  0  0  0  0  0  0
   -7.4949    1.4239   -0.9436 H   0  0  0  0  0  0  0  0  0  0  0  0
   -7.0100    0.0055   -1.8626 H   0  0  0  0  0  0  0  0  0  0  0  0
   -6.8421    0.4304    1.1866 H   0  0  0  0  0  0  0  0  0  0  0  0
   -7.9017   -0.7477    0.3744 H   0  0  0  0  0  0  0  0  0  0  0  0
  1  2  1  0
  2  3  2  0
  3  4  1  0
  4  5  2  0
  5  6  1  0
  6  7  1  0
  7  8  1  0
  8  9  2  0
  9 10  1  0
 10 11  2  0
 11 12  1  0
 11 13  1  0
 13 14  2  0
 14 15  1  0
  6 16  2  0
 16 17  1  0
 17 18  2  3
 18 19  1  0
 19 20  1  0
 20 21  1  0
 21 22  1  0
 22 23  1  0
 23 24  1  0
 24 25  1  0
 25 26  1  0
 17 27  1  0
 27 28  2  0
 28  1  1  0
 28  5  1  0
 14  8  1  0
 26 21  1  0
  1 29  1  0
  2 30  1  0
  3 31  1  0
  7 32  1  0
  9 33  1  0
 10 34  1  0
 13 35  1  0
 15 36  1  0
 15 37  1  0
 15 38  1  0
 19 39  1  0
 19 40  1  0
 20 41  1  0
 20 42  1  0
 21 43  1  0
 22 44  1  0
 22 45  1  0
 23 46  1  0
 23 47  1  0
 25 48  1  0
 25 49  1  0
 26 50  1  0
 26 51  1  0
M  CHG  1  21   1
M  END
>  <ScrubInfo>  (6) 
{"isomerGroup": 0, "isomerId": 5, "confId": 0, "nr_conformers:": 1, "nr_isomers:": 9}

$$$$
_i6
     RDKit          3D

 51 54  0  0  0  0  0  0  0  0999 V2000
   -2.5274   -0.2186   -4.8681 N   0  0  0  0  0  0  0  0  0  0  0  0
   -3.1234    0.8302   -5.5152 C   0  0  0  0  0  0  0  0  0  0  0  0
   -2.7953    2.0980   -5.2191 C   0  0  0  0  0  0  0  0  0  0  0  0
   -1.8519    2.4438   -4.2727 N   0  0  0  0  0  0  0  0  0  0  0  0
   -1.2615    1.4707   -3.6332 C   0  0  0  0  0  0  0  0  0  0  0  0
   -0.2019    1.6653   -2.5870 C   0  0  0  0  0  0  0  0  0  0  0  0
    0.3860    2.7658   -2.2300 N   0  0  0  0  0  0  0  0  0  0  0  0
    0.0703    3.9886   -2.8352 C   0  0  0  0  0  0  0  0  0  0  0  0
    0.7858    4.3891   -3.9719 C   0  0  0  0  0  0  0  0  0  0  0  0
    0.5226    5.6156   -4.5837 C   0  0  0  0  0  0  0  0  0  0  0  0
   -0.4503    6.4546   -4.0500 C   0  0  0  0  0  0  0  0  0  0  0  0
   -0.7829    7.9640   -4.8043 Cl  0  0  0  0  0  0  0  0  0  0  0  0
   -1.1528    6.0829   -2.9043 C   0  0  0  0  0  0  0  0  0  0  0  0
   -0.8897    4.8536   -2.2773 C   0  0  0  0  0  0  0  0  0  0  0  0
   -1.6619    4.4692   -1.0478 C   0  0  0  0  0  0  0  0  0  0  0  0
    0.2724    0.5843   -1.8868 N   0  0  0  0  0  0  0  0  0  0  0  0
   -0.1369   -0.6032   -2.2014 C   0  0  0  0  0  0  0  0  0  0  0  0
    0.3544   -1.6769   -1.5232 N   0  0  0  0  0  0  0  0  0  0  0  0
    0.8934   -1.6309   -0.1717 C   0  0  0  0  0  0  0  0  0  0  0  0
    2.3139   -1.0254   -0.1089 C   0  0  0  0  0  0  0  0  0  0  0  0
    2.3297    0.4895   -0.1753 N   0  0  0  0  0  4  0  0  0  0  0  0
    1.9221    1.1635    1.1251 C   0  0  0  0  0  0  0  0  0  0  0  0
    2.0310    2.6870    1.0045 C   0  0  0  0  0  0  0  0  0  0  0  0
    3.3539    3.0722    0.6174 O   0  0  0  0  0  0  0  0  0  0  0  0
    3.6755    2.5519   -0.6769 C   0  0  0  0  0  0  0  0  0  0  0  0
    3.6693    1.0204   -0.6631 C   0  0  0  0  0  0  0  0  0  0  0  0
   -1.0315   -0.9073   -3.1801 N   0  0  0  0  0  0  0  0  0  0  0  0
   -1.6018    0.0165   -3.8840 C   0  0  0  0  0  0  0  0  0  0  0  0
   -2.8189   -1.1648   -5.0793 H   0  0  0  0  0  0  0  0  0  0  0  0
   -3.8656    0.5740   -6.2647 H   0  0  0  0  0  0  0  0  0  0  0  0
   -3.2752    2.9258   -5.7374 H   0  0  0  0  0  0  0  0  0  0  0  0
    1.5484    3.7397   -4.3916 H   0  0  0  0  0  0  0  0  0  0  0  0
    1.0751    5.9084   -5.4724 H   0  0  0  0  0  0  0  0  0  0  0  0
   -1.9072    6.7538   -2.4991 H   0  0  0  0  0  0  0  0  0  0  0  0
   -0.9817    4.1645   -0.2462 H   0  0  0  0  0  0  0  0  0  0  0  0
   -2.3475    3.6466   -1.2743 H   0  0  0  0  0  0  0  0  0  0  0  0
   -2.2549    5.3079   -0.6680 H   0  0  0  0  0  0  0  0  0  0  0  0
   -0.1771   -2.5183   -1.7400 H   0  0  0  0  0  0  0  0  0  0  0  0
    0.9634   -2.6657    0.1832 H   0  0  0  0  0  0  0  0  0  0  0  0
    0.1980   -1.1170    0.4996 H   0  0  0  0  0  0  0  0  0  0  0  0
    2.8146   -1.3063    0.8239 H   0  0  0  0  0  0  0  0  0  0  0  0
    2.9100   -1.3941   -0.9515 H   0  0  0  0  0  0  0  0  0  0  0  0
    1.6236    0.7676   -0.8912 H   0  0  0  0  0  0  0  0  0  0  0  0
    0.8966    0.8626    1.3540 H   0  0  0  0  0  0  0  0  0  0  0  0
    2.6054    0.7902    1.8956 H   0  0  0  0  0  0  0  0  0  0  0  0
    1.3061    3.0888    0.2905 H   0  0  0  0  0  0  0  0  0  0  0  0
    1.8238    3.1462    1.9762 H   0  0  0  0  0  0  0  0  0  0  0  0
    4.6758    2.9110   -0.9386 H   0  0  0  0  0  0  0  0  0  0  0  0
    2.9784    2.9522   -1.4195 H   0  0  0  0  0  0  0  0  0  0  0  0
    4.4243    0.6362    0.0316 H   0  0  0  0  0  0  0  0  0  0  0  0
    3.8390    0.6177   -1.6663 H   0  0  0  0  0  0  0  0  0  0  0  0
  1  2  1  0
  2  3  2  0
  3  4  1  0
  4  5  2  0
  5  6  1  0
  6  7  2  3
  7  8  1  0
  8  9  2  0
  9 10  1  0
 10 11  2  0
 11 12  1  0
 11 13  1  0
 13 14  2  0
 14 15  1  0
  6 16  1  0
 16 17  2  0
 17 18  1  0
 18 19  1  0
 19 20  1  0
 20 21  1  0
 21 22  1  0
 22 23  1  0
 23 24  1  0
 24 25  1  0
 25 26  1  0
 17 27  1  0
 27 28  2  0
 28  1  1  0
 28  5  1  0
 14  8  1  0
 26 21  1  0
  1 29  1  0
  2 30  1  0
  3 31  1  0
  9 32  1  0
 10 33  1  0
 13 34  1  0
 15 35  1  0
 15 36  1  0
 15 37  1  0
 18 38  1  0
 19 39  1  0
 19 40  1  0
 20 41  1  0
 20 42  1  0
 21 43  1  0
 22 44  1  0
 22 45  1  0
 23 46  1  0
 23 47  1  0
 25 48  1  0
 25 49  1  0
 26 50  1  0
 26 51  1  0
M  CHG  1  21   1
M  END
>  <ScrubInfo>  (7) 
{"isomerGroup": 0, "isomerId": 6, "confId": 0, "nr_conformers:": 1, "nr_isomers:": 9}

$$$$
_i7
     RDKit          3D

 51 54  0  0  0  0  0  0  0  0999 V2000
    0.7013    1.9594   -4.3626 N   0  0  0  0  0  0  0  0  0  0  0  0
    0.6250    0.6132   -4.1448 C   0  0  0  0  0  0  0  0  0  0  0  0
    1.3067   -0.0894   -3.3020 N   0  0  0  0  0  0  0  0  0  0  0  0
    2.2892    0.5774   -2.4556 C   0  0  0  0  0  0  0  0  0  0  0  0
    2.9446   -0.4916   -1.5656 C   0  0  0  0  0  0  0  0  0  0  0  0
    3.8490    0.1133   -0.5104 N   0  0  0  0  0  4  0  0  0  0  0  0
    5.1210    0.7332   -1.0834 C   0  0  0  0  0  0  0  0  0  0  0  0
    5.9890    1.2794    0.0565 C   0  0  0  0  0  0  0  0  0  0  0  0
    6.3064    0.2515    0.9993 O   0  0  0  0  0  0  0  0  0  0  0  0
    5.1308   -0.2982    1.6021 C   0  0  0  0  0  0  0  0  0  0  0  0
    4.2207   -0.9323    0.5454 C   0  0  0  0  0  0  0  0  0  0  0  0
   -0.2940   -0.0217   -4.9338 N   0  0  0  0  0  0  0  0  0  0  0  0
   -1.1355    0.4999   -5.9000 C   0  0  0  0  0  0  0  0  0  0  0  0
   -1.9907   -0.1700   -6.6178 N   0  0  0  0  0  0  0  0  0  0  0  0
   -2.1180   -1.5535   -6.4374 C   0  0  0  0  0  0  0  0  0  0  0  0
   -3.0322   -2.0343   -5.4919 C   0  0  0  0  0  0  0  0  0  0  0  0
   -3.1739   -3.4049   -5.2713 C   0  0  0  0  0  0  0  0  0  0  0  0
   -2.4043   -4.3014   -6.0066 C   0  0  0  0  0  0  0  0  0  0  0  0
   -2.5604   -5.9909   -5.7251 Cl  0  0  0  0  0  0  0  0  0  0  0  0
   -1.5063   -3.8395   -6.9689 C   0  0  0  0  0  0  0  0  0  0  0  0
   -1.3646   -2.4620   -7.2025 C   0  0  0  0  0  0  0  0  0  0  0  0
   -0.4107   -1.9747   -8.2568 C   0  0  0  0  0  0  0  0  0  0  0  0
   -1.0132    1.9765   -6.1050 C   0  0  0  0  0  0  0  0  0  0  0  0
   -1.7873    2.5972   -7.0297 N   0  0  0  0  0  0  0  0  0  0  0  0
   -1.5903    3.9287   -7.1271 C   0  0  0  0  0  0  0  0  0  0  0  0
   -0.6664    4.6014   -6.3397 C   0  0  0  0  0  0  0  0  0  0  0  0
    0.1086    3.9771   -5.4138 N   0  0  0  0  0  0  0  0  0  0  0  0
   -0.0763    2.6406   -5.3030 C   0  0  0  0  0  0  0  0  0  0  0  0
    1.3275    2.5704   -3.8655 H   0  0  0  0  0  0  0  0  0  0  0  0
    3.0495    1.0676   -3.0730 H   0  0  0  0  0  0  0  0  0  0  0  0
    1.8026    1.3310   -1.8253 H   0  0  0  0  0  0  0  0  0  0  0  0
    3.5395   -1.1993   -2.1545 H   0  0  0  0  0  0  0  0  0  0  0  0
    2.1673   -1.0505   -1.0313 H   0  0  0  0  0  0  0  0  0  0  0  0
    3.3197    0.8495   -0.0255 H   0  0  0  0  0  0  0  0  0  0  0  0
    4.8271    1.5376   -1.7621 H   0  0  0  0  0  0  0  0  0  0  0  0
    5.6399   -0.0609   -1.6307 H   0  0  0  0  0  0  0  0  0  0  0  0
    6.9307    1.6627   -0.3483 H   0  0  0  0  0  0  0  0  0  0  0  0
    5.4878    2.1050    0.5753 H   0  0  0  0  0  0  0  0  0  0  0  0
    5.4494   -1.0599    2.3204 H   0  0  0  0  0  0  0  0  0  0  0  0
    4.6065    0.4878    2.1581 H   0  0  0  0  0  0  0  0  0  0  0  0
    3.2901   -1.2943    0.9927 H   0  0  0  0  0  0  0  0  0  0  0  0
    4.7326   -1.7433    0.0163 H   0  0  0  0  0  0  0  0  0  0  0  0
   -0.3568   -1.0204   -4.7845 H   0  0  0  0  0  0  0  0  0  0  0  0
   -3.6444   -1.3307   -4.9330 H   0  0  0  0  0  0  0  0  0  0  0  0
   -3.8899   -3.7632   -4.5367 H   0  0  0  0  0  0  0  0  0  0  0  0
   -0.9264   -4.5543   -7.5487 H   0  0  0  0  0  0  0  0  0  0  0  0
    0.4401   -1.4676   -7.7912 H   0  0  0  0  0  0  0  0  0  0  0  0
   -0.9150   -1.2856   -8.9420 H   0  0  0  0  0  0  0  0  0  0  0  0
   -0.0214   -2.8036   -8.8574 H   0  0  0  0  0  0  0  0  0  0  0  0
   -2.1987    4.4479   -7.8604 H   0  0  0  0  0  0  0  0  0  0  0  0
   -0.5241    5.6733   -6.4345 H   0  0  0  0  0  0  0  0  0  0  0  0
  1  2  1  0
  2  3  2  3
  3  4  1  0
  4  5  1  0
  5  6  1  0
  6  7  1  0
  7  8  1  0
  8  9  1  0
  9 10  1  0
 10 11  1  0
  2 12  1  0
 12 13  1  0
 13 14  2  3
 14 15  1  0
 15 16  2  0
 16 17  1  0
 17 18  2  0
 18 19  1  0
 18 20  1  0
 20 21  2  0
 21 22  1  0
 13 23  1  0
 23 24  2  0
 24 25  1  0
 25 26  2  0
 26 27  1  0
 27 28  2  0
 28  1  1  0
 11  6  1  0
 21 15  1  0
 28 23  1  0
  1 29  1  0
  4 30  1  0
  4 31  1  0
  5 32  1  0
  5 33  1  0
  6 34  1  0
  7 35  1  0
  7 36  1  0
  8 37  1  0
  8 38  1  0
 10 39  1  0
 10 40  1  0
 11 41  1  0
 11 42  1  0
 12 43  1  0
 16 44  1  0
 17 45  1  0
 20 46  1  0
 22 47  1  0
 22 48  1  0
 22 49  1  0
 25 50  1  0
 26 51  1  0
M  CHG  1   6   1
M  END
>  <ScrubInfo>  (8) 
{"isomerGroup": 0, "isomerId": 7, "confId": 0, "nr_conformers:": 1, "nr_isomers:": 9}

$$$$
_i8
     RDKit          3D

 51 54  0  0  0  0  0  0  0  0999 V2000
   -3.3076   -2.0960   -0.7607 N   0  0  0  0  0  0  0  0  0  0  0  0
   -4.1685   -3.1431   -0.5855 C   0  0  0  0  0  0  0  0  0  0  0  0
   -3.7210   -4.3467   -0.1970 C   0  0  0  0  0  0  0  0  0  0  0  0
   -2.3951   -4.6293    0.0528 N   0  0  0  0  0  0  0  0  0  0  0  0
   -1.5268   -3.6660   -0.0988 C   0  0  0  0  0  0  0  0  0  0  0  0
   -0.0431   -3.8609    0.1451 C   0  0  0  0  0  0  0  0  0  0  0  0
    0.5902   -4.9386    0.5163 N   0  0  0  0  0  0  0  0  0  0  0  0
   -0.0924   -6.1384    0.7550 C   0  0  0  0  0  0  0  0  0  0  0  0
   -0.5462   -6.4149    2.0516 C   0  0  0  0  0  0  0  0  0  0  0  0
   -1.2063   -7.6114    2.3359 C   0  0  0  0  0  0  0  0  0  0  0  0
   -1.4019   -8.5445    1.3228 C   0  0  0  0  0  0  0  0  0  0  0  0
   -2.2222  -10.0173    1.6656 Cl  0  0  0  0  0  0  0  0  0  0  0  0
   -0.9319   -8.2976    0.0333 C   0  0  0  0  0  0  0  0  0  0  0  0
   -0.2588   -7.0999   -0.2595 C   0  0  0  0  0  0  0  0  0  0  0  0
    0.2375   -6.8491   -1.6544 C   0  0  0  0  0  0  0  0  0  0  0  0
    0.6812   -2.7242   -0.0693 N   0  0  0  0  0  0  0  0  0  0  0  0
    0.2248   -1.5033   -0.4603 C   0  0  0  0  0  0  0  0  0  0  0  0
    0.9305   -0.4474   -0.6538 N   0  0  0  0  0  0  0  0  0  0  0  0
    2.3697   -0.4561   -0.4616 C   0  0  0  0  0  0  0  0  0  0  0  0
    2.8842    0.9566   -0.7876 C   0  0  0  0  0  0  0  0  0  0  0  0
    4.3488    1.1320   -0.4383 N   0  0  0  0  0  4  0  0  0  0  0  0
    4.7352    2.6141   -0.4726 C   0  0  0  0  0  0  0  0  0  0  0  0
    6.2164    2.7697   -0.1138 C   0  0  0  0  0  0  0  0  0  0  0  0
    7.0399    2.0119   -1.0056 O   0  0  0  0  0  0  0  0  0  0  0  0
    6.7437    0.6138   -0.9434 C   0  0  0  0  0  0  0  0  0  0  0  0
    5.2889    0.3399   -1.3430 C   0  0  0  0  0  0  0  0  0  0  0  0
   -1.1065   -1.2876   -0.6933 N   0  0  0  0  0  0  0  0  0  0  0  0
   -1.9624   -2.2542   -0.5415 C   0  0  0  0  0  0  0  0  0  0  0  0
   -3.6641   -1.1953   -1.0535 H   0  0  0  0  0  0  0  0  0  0  0  0
   -5.2170   -2.9402   -0.7777 H   0  0  0  0  0  0  0  0  0  0  0  0
   -4.4152   -5.1731   -0.0606 H   0  0  0  0  0  0  0  0  0  0  0  0
   -0.3924   -5.6885    2.8442 H   0  0  0  0  0  0  0  0  0  0  0  0
   -1.5645   -7.8060    3.3428 H   0  0  0  0  0  0  0  0  0  0  0  0
   -1.0890   -9.0406   -0.7450 H   0  0  0  0  0  0  0  0  0  0  0  0
    0.1867   -7.7559   -2.2665 H   0  0  0  0  0  0  0  0  0  0  0  0
    1.2841   -6.5280   -1.6391 H   0  0  0  0  0  0  0  0  0  0  0  0
   -0.3713   -6.0792   -2.1388 H   0  0  0  0  0  0  0  0  0  0  0  0
    1.6660   -2.8517    0.0921 H   0  0  0  0  0  0  0  0  0  0  0  0
    2.8385   -1.1889   -1.1268 H   0  0  0  0  0  0  0  0  0  0  0  0
    2.6178   -0.7080    0.5760 H   0  0  0  0  0  0  0  0  0  0  0  0
    2.7597    1.1973   -1.8497 H   0  0  0  0  0  0  0  0  0  0  0  0
    2.3295    1.6945   -0.1960 H   0  0  0  0  0  0  0  0  0  0  0  0
    4.4834    0.8134    0.5299 H   0  0  0  0  0  0  0  0  0  0  0  0
    4.5345    2.9666   -1.4901 H   0  0  0  0  0  0  0  0  0  0  0  0
    4.0984    3.1376    0.2469 H   0  0  0  0  0  0  0  0  0  0  0  0
    6.5093    3.8205   -0.2013 H   0  0  0  0  0  0  0  0  0  0  0  0
    6.4109    2.4527    0.9174 H   0  0  0  0  0  0  0  0  0  0  0  0
    7.4188    0.0991   -1.6341 H   0  0  0  0  0  0  0  0  0  0  0  0
    6.9534    0.2434    0.0669 H   0  0  0  0  0  0  0  0  0  0  0  0
    5.0516   -0.7206   -1.2283 H   0  0  0  0  0  0  0  0  0  0  0  0
    5.0912    0.6690   -2.3687 H   0  0  0  0  0  0  0  0  0  0  0  0
  1  2  1  0
  2  3  2  0
  3  4  1  0
  4  5  2  0
  5  6  1  0
  6  7  2  3
  7  8  1  0
  8  9  2  0
  9 10  1  0
 10 11  2  0
 11 12  1  0
 11 13  1  0
 13 14  2  0
 14 15  1  0
  6 16  1  0
 16 17  1  0
 17 18  2  3
 18 19  1  0
 19 20  1  0
 20 21  1  0
 21 22  1  0
 22 23  1  0
 23 24  1  0
 24 25  1  0
 25 26  1  0
 17 27  1  0
 27 28  2  0
 28  1  1  0
 28  5  1  0
 14  8  1  0
 26 21  1  0
  1 29  1  0
  2 30  1  0
  3 31  1  0
  9 32  1  0
 10 33  1  0
 13 34  1  0
 15 35  1  0
 15 36  1  0
 15 37  1  0
 16 38  1  0
 19 39  1  0
 19 40  1  0
 20 41  1  0
 20 42  1  0
 21 43  1  0
 22 44  1  0
 22 45  1  0
 23 46  1  0
 23 47  1  0
 25 48  1  0
 25 49  1  0
 26 50  1  0
 26 51  1  0
M  CHG  1  21   1
M  END
>  <ScrubInfo>  (9) 
{"isomerGroup": 0, "isomerId": 8, "confId": 0, "nr_conformers:": 1, "nr_isomers:": 9}

$$$$
