REMARK SMILES CCCCNc1nc(Nc2ccccc2O)c2cnn(C)c2n1
REMARK SMILES IDX 6 1 7 2 8 3 17 4 18 5 19 6 20 7 21 8 22 9 23 10 5 11 4 13
REMARK SMILES IDX 3 14 2 15 1 16 9 17 10 19 11 20 15 21 12 22 14 23 13 24
REMARK SMILES IDX 16 25
REMARK H PARENT 5 12 9 18 16 26
ROOT
ATOM      1  C   UNL     1      -0.944  -1.311   0.706  1.00  0.00     0.226 A 
ATOM      2  N   UNL     1       0.149  -0.580   0.417  1.00  0.00    -0.195 NA
ATOM      3  C   UNL     1       1.263  -1.161  -0.103  1.00  0.00     0.147 A 
ATOM      4  C   UNL     1       1.207  -2.542  -0.322  1.00  0.00     0.082 A 
ATOM      5  C   UNL     1       2.044  -3.565  -0.816  1.00  0.00     0.149 A 
ATOM      6  N   UNL     1       1.460  -4.769  -0.805  1.00  0.00    -0.179 NA
ATOM      7  N   UNL     1       0.235  -4.511  -0.289  1.00  0.00    -0.250 N 
ATOM      8  C   UNL     1      -0.701  -5.592  -0.110  1.00  0.00     0.176 C 
ATOM      9  C   UNL     1       0.034  -3.191   0.010  1.00  0.00     0.165 A 
ATOM     10  N   UNL     1      -1.072  -2.631   0.521  1.00  0.00    -0.193 NA
ENDROOT
BRANCH   1  11
ATOM     11  N   UNL     1      -2.071  -0.688   1.235  1.00  0.00    -0.354 N 
ATOM     12  H   UNL     1      -2.835  -1.339   1.090  1.00  0.00     0.163 HD
BRANCH  11  13
ATOM     13  C   UNL     1      -2.298   0.660   0.741  1.00  0.00     0.116 C 
BRANCH  13  14
ATOM     14  C   UNL     1      -3.623   1.182   1.303  1.00  0.00     0.021 C 
BRANCH  14  15
ATOM     15  C   UNL     1      -3.895   2.646   0.955  1.00  0.00    -0.002 C 
ATOM     16  C   UNL     1      -4.082   2.892  -0.534  1.00  0.00     0.004 C 
ENDBRANCH  14  15
ENDBRANCH  13  14
ENDBRANCH  11  13
ENDBRANCH   1  11
BRANCH   3  17
ATOM     17  N   UNL     1       2.405  -0.424  -0.422  1.00  0.00    -0.336 N 
ATOM     18  H   UNL     1       3.153  -0.943  -0.871  1.00  0.00     0.168 HD
BRANCH  17  19
ATOM     19  C   UNL     1       2.753   0.931  -0.280  1.00  0.00     0.082 A 
ATOM     20  C   UNL     1       1.961   1.889   0.355  1.00  0.00     0.030 A 
ATOM     21  C   UNL     1       3.984   1.355  -0.819  1.00  0.00     0.139 A 
ATOM     22  C   UNL     1       2.380   3.221   0.446  1.00  0.00     0.002 A 
ATOM     23  C   UNL     1       4.412   2.680  -0.735  1.00  0.00     0.048 A 
ATOM     24  C   UNL     1       3.601   3.616  -0.098  1.00  0.00     0.004 A 
BRANCH  21  25
ATOM     25  O   UNL     1       4.768   0.411  -1.440  1.00  0.00    -0.506 OA
ATOM     26  H   UNL     1       5.572   0.853  -1.760  1.00  0.00     0.293 HD
ENDBRANCH  21  25
ENDBRANCH  17  19
ENDBRANCH   3  17
TORSDOF 7
