_i0
     RDKit          3D

 43 45  0  0  0  0  0  0  0  0999 V2000
   -4.0815    2.8922   -0.5341 C   0  0  0  0  0  0  0  0  0  0  0  0
   -3.8952    2.6464    0.9551 C   0  0  0  0  0  0  0  0  0  0  0  0
   -3.6232    1.1816    1.3028 C   0  0  0  0  0  0  0  0  0  0  0  0
   -2.2980    0.6602    0.7412 C   0  0  0  0  0  0  0  0  0  0  0  0
   -2.0710   -0.6877    1.2347 N   0  0  0  0  0  0  0  0  0  0  0  0
   -0.9441   -1.3108    0.7058 C   0  0  0  0  0  0  0  0  0  0  0  0
    0.1488   -0.5796    0.4166 N   0  0  0  0  0  0  0  0  0  0  0  0
    1.2626   -1.1605   -0.1033 C   0  0  0  0  0  0  0  0  0  0  0  0
    2.4055   -0.4236   -0.4225 N   0  0  0  0  0  0  0  0  0  0  0  0
    2.7534    0.9315   -0.2800 C   0  0  0  0  0  0  0  0  0  0  0  0
    1.9607    1.8887    0.3546 C   0  0  0  0  0  0  0  0  0  0  0  0
    2.3795    3.2214    0.4463 C   0  0  0  0  0  0  0  0  0  0  0  0
    3.6008    3.6162   -0.0979 C   0  0  0  0  0  0  0  0  0  0  0  0
    4.4117    2.6801   -0.7348 C   0  0  0  0  0  0  0  0  0  0  0  0
    3.9840    1.3555   -0.8190 C   0  0  0  0  0  0  0  0  0  0  0  0
    4.7675    0.4110   -1.4405 O   0  0  0  0  0  0  0  0  0  0  0  0
    1.2069   -2.5423   -0.3223 C   0  0  0  0  0  0  0  0  0  0  0  0
    2.0439   -3.5650   -0.8163 C   0  0  0  0  0  0  0  0  0  0  0  0
    1.4595   -4.7686   -0.8050 N   0  0  0  0  0  0  0  0  0  0  0  0
    0.2346   -4.5105   -0.2891 N   0  0  0  0  0  0  0  0  0  0  0  0
   -0.7011   -5.5917   -0.1103 C   0  0  0  0  0  0  0  0  0  0  0  0
    0.0340   -3.1905    0.0096 C   0  0  0  0  0  0  0  0  0  0  0  0
   -1.0719   -2.6308    0.5206 N   0  0  0  0  0  0  0  0  0  0  0  0
   -3.1581    2.7053   -1.0900 H   0  0  0  0  0  0  0  0  0  0  0  0
   -4.3680    3.9341   -0.7095 H   0  0  0  0  0  0  0  0  0  0  0  0
   -4.8687    2.2510   -0.9430 H   0  0  0  0  0  0  0  0  0  0  0  0
   -3.0798    3.2762    1.3293 H   0  0  0  0  0  0  0  0  0  0  0  0
   -4.8057    2.9639    1.4774 H   0  0  0  0  0  0  0  0  0  0  0  0
   -3.6150    1.0824    2.3961 H   0  0  0  0  0  0  0  0  0  0  0  0
   -4.4503    0.5562    0.9435 H   0  0  0  0  0  0  0  0  0  0  0  0
   -1.4897    1.3273    1.0635 H   0  0  0  0  0  0  0  0  0  0  0  0
   -2.3327    0.6596   -0.3547 H   0  0  0  0  0  0  0  0  0  0  0  0
   -2.8351   -1.3386    1.0899 H   0  0  0  0  0  0  0  0  0  0  0  0
    3.1533   -0.9426   -0.8707 H   0  0  0  0  0  0  0  0  0  0  0  0
    1.0097    1.6164    0.7995 H   0  0  0  0  0  0  0  0  0  0  0  0
    1.7465    3.9487    0.9487 H   0  0  0  0  0  0  0  0  0  0  0  0
    3.9185    4.6528   -0.0215 H   0  0  0  0  0  0  0  0  0  0  0  0
    5.3614    2.9964   -1.1531 H   0  0  0  0  0  0  0  0  0  0  0  0
    5.5718    0.8531   -1.7604 H   0  0  0  0  0  0  0  0  0  0  0  0
    3.0580   -3.4840   -1.1853 H   0  0  0  0  0  0  0  0  0  0  0  0
   -0.2505   -6.3294    0.5586 H   0  0  0  0  0  0  0  0  0  0  0  0
   -0.9036   -6.0360   -1.0881 H   0  0  0  0  0  0  0  0  0  0  0  0
   -1.6296   -5.2162    0.3254 H   0  0  0  0  0  0  0  0  0  0  0  0
  1  2  1  0
  2  3  1  0
  3  4  1  0
  4  5  1  0
  5  6  1  0
  6  7  2  0
  7  8  1  0
  8  9  1  0
  9 10  1  0
 10 11  2  0
 11 12  1  0
 12 13  2  0
 13 14  1  0
 14 15  2  0
 15 16  1  0
  8 17  2  0
 17 18  1  0
 18 19  2  0
 19 20  1  0
 20 21  1  0
 20 22  1  0
 22 23  2  0
 23  6  1  0
 15 10  1  0
 22 17  1  0
  1 24  1  0
  1 25  1  0
  1 26  1  0
  2 27  1  0
  2 28  1  0
  3 29  1  0
  3 30  1  0
  4 31  1  0
  4 32  1  0
  5 33  1  0
  9 34  1  0
 11 35  1  0
 12 36  1  0
 13 37  1  0
 14 38  1  0
 16 39  1  0
 18 40  1  0
 21 41  1  0
 21 42  1  0
 21 43  1  0
M  END
>  <ScrubInfo>  (1) 
{"isomerGroup": 0, "isomerId": 0, "confId": 0, "nr_conformers:": 1, "nr_isomers:": 9}

$$$$
_i1
     RDKit          3D

 43 45  0  0  0  0  0  0  0  0999 V2000
   -0.1095    0.3685   -0.1026 N   0  0  0  0  0  0  0  0  0  0  0  0
   -1.2836    0.9746    0.3101 C   0  0  0  0  0  0  0  0  0  0  0  0
   -2.4971    0.3226    0.3491 N   0  0  0  0  0  0  0  0  0  0  0  0
   -2.9359   -0.8520   -0.2911 C   0  0  0  0  0  0  0  0  0  0  0  0
   -2.3525   -1.3723   -1.4503 C   0  0  0  0  0  0  0  0  0  0  0  0
   -2.8165   -2.5683   -2.0085 C   0  0  0  0  0  0  0  0  0  0  0  0
   -3.8716   -3.2599   -1.4141 C   0  0  0  0  0  0  0  0  0  0  0  0
   -4.4759   -2.7549   -0.2648 C   0  0  0  0  0  0  0  0  0  0  0  0
   -4.0076   -1.5615    0.2822 C   0  0  0  0  0  0  0  0  0  0  0  0
   -4.5916   -1.0361    1.4093 O   0  0  0  0  0  0  0  0  0  0  0  0
   -1.1511    2.2434    0.7135 C   0  0  0  0  0  0  0  0  0  0  0  0
   -2.0158    3.3256    1.1954 C   0  0  0  0  0  0  0  0  0  0  0  0
   -1.3684    4.4425    1.4130 N   0  0  0  0  0  0  0  0  0  0  0  0
   -0.0230    4.1515    1.1323 N   0  0  0  0  0  0  0  0  0  0  0  0
    0.9165    5.2363    0.9863 C   0  0  0  0  0  0  0  0  0  0  0  0
    0.1878    2.8650    0.6624 C   0  0  0  0  0  0  0  0  0  0  0  0
    1.2666    2.2890    0.2578 N   0  0  0  0  0  0  0  0  0  0  0  0
    1.1293    0.9696   -0.1149 C   0  0  0  0  0  0  0  0  0  0  0  0
    2.2420    0.4146   -0.4418 N   0  0  0  0  0  0  0  0  0  0  0  0
    2.2430   -0.9808   -0.8582 C   0  0  0  0  0  0  0  0  0  0  0  0
    3.6663   -1.3918   -1.2385 C   0  0  0  0  0  0  0  0  0  0  0  0
    4.6865   -1.3075   -0.0986 C   0  0  0  0  0  0  0  0  0  0  0  0
    4.3733   -2.2313    1.0682 C   0  0  0  0  0  0  0  0  0  0  0  0
   -0.1604   -0.6304   -0.2160 H   0  0  0  0  0  0  0  0  0  0  0  0
   -3.1942    0.6746    1.0033 H   0  0  0  0  0  0  0  0  0  0  0  0
   -1.5598   -0.8367   -1.9650 H   0  0  0  0  0  0  0  0  0  0  0  0
   -2.3590   -2.9538   -2.9169 H   0  0  0  0  0  0  0  0  0  0  0  0
   -4.2284   -4.1876   -1.8551 H   0  0  0  0  0  0  0  0  0  0  0  0
   -5.3025   -3.2970    0.1830 H   0  0  0  0  0  0  0  0  0  0  0  0
   -5.2816   -1.6522    1.7089 H   0  0  0  0  0  0  0  0  0  0  0  0
   -3.0957    3.1768    1.3213 H   0  0  0  0  0  0  0  0  0  0  0  0
    0.8891    5.6288   -0.0349 H   0  0  0  0  0  0  0  0  0  0  0  0
    0.6779    6.0516    1.6770 H   0  0  0  0  0  0  0  0  0  0  0  0
    1.9360    4.9024    1.2045 H   0  0  0  0  0  0  0  0  0  0  0  0
    1.6019   -1.1131   -1.7384 H   0  0  0  0  0  0  0  0  0  0  0  0
    1.8638   -1.6308   -0.0622 H   0  0  0  0  0  0  0  0  0  0  0  0
    4.0154   -0.7527   -2.0595 H   0  0  0  0  0  0  0  0  0  0  0  0
    3.6453   -2.4178   -1.6259 H   0  0  0  0  0  0  0  0  0  0  0  0
    4.7665   -0.2767    0.2648 H   0  0  0  0  0  0  0  0  0  0  0  0
    5.6721   -1.5745   -0.4987 H   0  0  0  0  0  0  0  0  0  0  0  0
    4.2533   -3.2654    0.7302 H   0  0  0  0  0  0  0  0  0  0  0  0
    5.1901   -2.2056    1.7967 H   0  0  0  0  0  0  0  0  0  0  0  0
    3.4594   -1.9268    1.5865 H   0  0  0  0  0  0  0  0  0  0  0  0
  1  2  1  0
  2  3  1  0
  3  4  1  0
  4  5  2  0
  5  6  1  0
  6  7  2  0
  7  8  1  0
  8  9  2  0
  9 10  1  0
  2 11  2  0
 11 12  1  0
 12 13  2  0
 13 14  1  0
 14 15  1  0
 14 16  1  0
 16 17  2  0
 17 18  1  0
 18 19  2  3
 19 20  1  0
 20 21  1  0
 21 22  1  0
 22 23  1  0
 18  1  1  0
  9  4  1  0
 16 11  1  0
  1 24  1  0
  3 25  1  0
  5 26  1  0
  6 27  1  0
  7 28  1  0
  8 29  1  0
 10 30  1  0
 12 31  1  0
 15 32  1  0
 15 33  1  0
 15 34  1  0
 20 35  1  0
 20 36  1  0
 21 37  1  0
 21 38  1  0
 22 39  1  0
 22 40  1  0
 23 41  1  0
 23 42  1  0
 23 43  1  0
M  END
>  <ScrubInfo>  (2) 
{"isomerGroup": 0, "isomerId": 1, "confId": 0, "nr_conformers:": 1, "nr_isomers:": 9}

$$$$
_i2
     RDKit          3D

 43 45  0  0  0  0  0  0  0  0999 V2000
   -0.2813   -1.1688   -0.1142 N   0  0  0  0  0  0  0  0  0  0  0  0
   -1.3062   -0.7359    0.6886 C   0  0  0  0  0  0  0  0  0  0  0  0
   -2.5094   -1.3634    0.5370 N   0  0  0  0  0  0  0  0  0  0  0  0
   -3.1109   -1.6913   -0.7460 C   0  0  0  0  0  0  0  0  0  0  0  0
   -3.4334   -0.4440   -1.5719 C   0  0  0  0  0  0  0  0  0  0  0  0
   -4.4106    0.5395   -0.9200 C   0  0  0  0  0  0  0  0  0  0  0  0
   -5.7772   -0.0610   -0.6308 C   0  0  0  0  0  0  0  0  0  0  0  0
   -1.1873    0.2172    1.5781 N   0  0  0  0  0  0  0  0  0  0  0  0
    0.0709    0.7416    1.5849 C   0  0  0  0  0  0  0  0  0  0  0  0
    1.1667    0.3684    0.8208 C   0  0  0  0  0  0  0  0  0  0  0  0
    2.1799    1.2640    1.2071 C   0  0  0  0  0  0  0  0  0  0  0  0
    1.7797    2.1226    2.1538 N   0  0  0  0  0  0  0  0  0  0  0  0
    0.4897    1.7798    2.3684 N   0  0  0  0  0  0  0  0  0  0  0  0
   -0.2845    2.5137    3.3373 C   0  0  0  0  0  0  0  0  0  0  0  0
    1.0228   -0.7300   -0.1144 C   0  0  0  0  0  0  0  0  0  0  0  0
    1.9240   -1.2842   -0.8695 N   0  0  0  0  0  0  0  0  0  0  0  0
    3.2687   -0.8900   -0.8249 C   0  0  0  0  0  0  0  0  0  0  0  0
    4.1353   -1.3859    0.1517 C   0  0  0  0  0  0  0  0  0  0  0  0
    5.4770   -0.9934    0.1647 C   0  0  0  0  0  0  0  0  0  0  0  0
    5.9620   -0.1172   -0.8095 C   0  0  0  0  0  0  0  0  0  0  0  0
    5.1123    0.3599   -1.8072 C   0  0  0  0  0  0  0  0  0  0  0  0
    3.7818   -0.0393   -1.8126 C   0  0  0  0  0  0  0  0  0  0  0  0
    2.9656    0.4124   -2.8142 O   0  0  0  0  0  0  0  0  0  0  0  0
   -0.4282   -2.0224   -0.6261 H   0  0  0  0  0  0  0  0  0  0  0  0
   -3.1833   -0.9516    1.1797 H   0  0  0  0  0  0  0  0  0  0  0  0
   -2.4447   -2.3453   -1.3195 H   0  0  0  0  0  0  0  0  0  0  0  0
   -4.0202   -2.2748   -0.5669 H   0  0  0  0  0  0  0  0  0  0  0  0
   -2.5047    0.0943   -1.7986 H   0  0  0  0  0  0  0  0  0  0  0  0
   -3.8457   -0.7652   -2.5365 H   0  0  0  0  0  0  0  0  0  0  0  0
   -3.9859    0.9424    0.0061 H   0  0  0  0  0  0  0  0  0  0  0  0
   -4.5417    1.3924   -1.5970 H   0  0  0  0  0  0  0  0  0  0  0  0
   -5.7197   -0.8364    0.1386 H   0  0  0  0  0  0  0  0  0  0  0  0
   -6.2136   -0.4991   -1.5339 H   0  0  0  0  0  0  0  0  0  0  0  0
   -6.4588    0.7149   -0.2675 H   0  0  0  0  0  0  0  0  0  0  0  0
    3.1969    1.3472    0.8493 H   0  0  0  0  0  0  0  0  0  0  0  0
    0.2749    2.5454    4.2759 H   0  0  0  0  0  0  0  0  0  0  0  0
   -1.2455    2.0214    3.5014 H   0  0  0  0  0  0  0  0  0  0  0  0
   -0.4427    3.5245    2.9531 H   0  0  0  0  0  0  0  0  0  0  0  0
    3.7655   -2.0737    0.9068 H   0  0  0  0  0  0  0  0  0  0  0  0
    6.1451   -1.3732    0.9339 H   0  0  0  0  0  0  0  0  0  0  0  0
    7.0060    0.1862   -0.7968 H   0  0  0  0  0  0  0  0  0  0  0  0
    5.4843    1.0286   -2.5774 H   0  0  0  0  0  0  0  0  0  0  0  0
    2.1267   -0.0704   -2.6816 H   0  0  0  0  0  0  0  0  0  0  0  0
  1  2  1  0
  2  3  1  0
  3  4  1  0
  4  5  1  0
  5  6  1  0
  6  7  1  0
  2  8  2  0
  8  9  1  0
  9 10  2  0
 10 11  1  0
 11 12  2  0
 12 13  1  0
 13 14  1  0
 10 15  1  0
 15 16  2  3
 16 17  1  0
 17 18  2  0
 18 19  1  0
 19 20  2  0
 20 21  1  0
 21 22  2  0
 22 23  1  0
 15  1  1  0
 22 17  1  0
 13  9  1  0
  1 24  1  0
  3 25  1  0
  4 26  1  0
  4 27  1  0
  5 28  1  0
  5 29  1  0
  6 30  1  0
  6 31  1  0
  7 32  1  0
  7 33  1  0
  7 34  1  0
 11 35  1  0
 14 36  1  0
 14 37  1  0
 14 38  1  0
 18 39  1  0
 19 40  1  0
 20 41  1  0
 21 42  1  0
 23 43  1  0
M  END
>  <ScrubInfo>  (3) 
{"isomerGroup": 0, "isomerId": 2, "confId": 0, "nr_conformers:": 1, "nr_isomers:": 9}

$$$$
_i3
     RDKit          3D

 43 45  0  0  0  0  0  0  0  0999 V2000
    1.4118   -1.9796    0.6700 N   0  0  0  0  0  0  0  0  0  0  0  0
    1.1217   -0.6398    0.5591 C   0  0  0  0  0  0  0  0  0  0  0  0
    2.0886    0.1982    0.7376 N   0  0  0  0  0  0  0  0  0  0  0  0
    1.7947    1.6251    0.6265 C   0  0  0  0  0  0  0  0  0  0  0  0
    3.0433    2.4237    1.0070 C   0  0  0  0  0  0  0  0  0  0  0  0
    4.2598    2.1843    0.1069 C   0  0  0  0  0  0  0  0  0  0  0  0
    4.0350    2.5905   -1.3412 C   0  0  0  0  0  0  0  0  0  0  0  0
   -0.1617   -0.1894    0.2690 N   0  0  0  0  0  0  0  0  0  0  0  0
   -1.1312   -1.0509    0.1232 C   0  0  0  0  0  0  0  0  0  0  0  0
   -2.4513   -0.7839   -0.1316 N   0  0  0  0  0  0  0  0  0  0  0  0
   -3.1426    0.4312   -0.3383 C   0  0  0  0  0  0  0  0  0  0  0  0
   -4.5515    0.3747   -0.2387 C   0  0  0  0  0  0  0  0  0  0  0  0
   -5.3562    1.5055   -0.4146 C   0  0  0  0  0  0  0  0  0  0  0  0
   -4.7714    2.7322   -0.6956 C   0  0  0  0  0  0  0  0  0  0  0  0
   -3.3871    2.8210   -0.7950 C   0  0  0  0  0  0  0  0  0  0  0  0
   -2.5847    1.6887   -0.6110 C   0  0  0  0  0  0  0  0  0  0  0  0
   -1.2492    1.9264   -0.7581 O   0  0  0  0  0  0  0  0  0  0  0  0
   -0.8576   -2.4740    0.2397 C   0  0  0  0  0  0  0  0  0  0  0  0
   -1.5654   -3.6850    0.1447 C   0  0  0  0  0  0  0  0  0  0  0  0
   -0.7839   -4.7555    0.3509 N   0  0  0  0  0  0  0  0  0  0  0  0
    0.4433   -4.2240    0.5737 N   0  0  0  0  0  0  0  0  0  0  0  0
    1.5552   -5.1031    0.8324 C   0  0  0  0  0  0  0  0  0  0  0  0
    0.4236   -2.8682    0.5115 C   0  0  0  0  0  0  0  0  0  0  0  0
    2.3789   -2.1850    0.8840 H   0  0  0  0  0  0  0  0  0  0  0  0
    0.9893    1.9071    1.3156 H   0  0  0  0  0  0  0  0  0  0  0  0
    1.4847    1.8806   -0.3919 H   0  0  0  0  0  0  0  0  0  0  0  0
    2.7947    3.4919    0.9971 H   0  0  0  0  0  0  0  0  0  0  0  0
    3.3250    2.1756    2.0382 H   0  0  0  0  0  0  0  0  0  0  0  0
    5.1010    2.7650    0.5043 H   0  0  0  0  0  0  0  0  0  0  0  0
    4.5615    1.1315    0.1470 H   0  0  0  0  0  0  0  0  0  0  0  0
    3.6982    3.6296   -1.4108 H   0  0  0  0  0  0  0  0  0  0  0  0
    4.9685    2.4986   -1.9058 H   0  0  0  0  0  0  0  0  0  0  0  0
    3.2919    1.9510   -1.8265 H   0  0  0  0  0  0  0  0  0  0  0  0
   -3.0804   -1.5748   -0.1255 H   0  0  0  0  0  0  0  0  0  0  0  0
   -5.0501   -0.5661   -0.0145 H   0  0  0  0  0  0  0  0  0  0  0  0
   -6.4369    1.4242   -0.3309 H   0  0  0  0  0  0  0  0  0  0  0  0
   -5.3857    3.6170   -0.8368 H   0  0  0  0  0  0  0  0  0  0  0  0
   -2.9195    3.7772   -1.0171 H   0  0  0  0  0  0  0  0  0  0  0  0
   -0.7683    1.1486   -0.4086 H   0  0  0  0  0  0  0  0  0  0  0  0
   -2.6131   -3.8539   -0.0651 H   0  0  0  0  0  0  0  0  0  0  0  0
    1.6803   -5.7628   -0.0298 H   0  0  0  0  0  0  0  0  0  0  0  0
    2.4647   -4.5187    0.9864 H   0  0  0  0  0  0  0  0  0  0  0  0
    1.3322   -5.6849    1.7303 H   0  0  0  0  0  0  0  0  0  0  0  0
  1  2  1  0
  2  3  2  3
  3  4  1  0
  4  5  1  0
  5  6  1  0
  6  7  1  0
  2  8  1  0
  8  9  2  0
  9 10  1  0
 10 11  1  0
 11 12  2  0
 12 13  1  0
 13 14  2  0
 14 15  1  0
 15 16  2  0
 16 17  1  0
  9 18  1  0
 18 19  1  0
 19 20  2  0
 20 21  1  0
 21 22  1  0
 21 23  1  0
 23  1  1  0
 16 11  1  0
 23 18  2  0
  1 24  1  0
  4 25  1  0
  4 26  1  0
  5 27  1  0
  5 28  1  0
  6 29  1  0
  6 30  1  0
  7 31  1  0
  7 32  1  0
  7 33  1  0
 10 34  1  0
 12 35  1  0
 13 36  1  0
 14 37  1  0
 15 38  1  0
 17 39  1  0
 19 40  1  0
 22 41  1  0
 22 42  1  0
 22 43  1  0
M  END
>  <ScrubInfo>  (4) 
{"isomerGroup": 0, "isomerId": 3, "confId": 0, "nr_conformers:": 1, "nr_isomers:": 9}

$$$$
_i4
     RDKit          3D

 43 45  0  0  0  0  0  0  0  0999 V2000
    2.5066   -2.7205    0.2143 N   0  0  0  0  0  0  0  0  0  0  0  0
    2.6773   -1.3513    0.0339 C   0  0  0  0  0  0  0  0  0  0  0  0
    1.5247   -0.6783   -0.1057 C   0  0  0  0  0  0  0  0  0  0  0  0
    1.0572    0.6912   -0.2846 C   0  0  0  0  0  0  0  0  0  0  0  0
    1.7075    1.8008   -0.3935 N   0  0  0  0  0  0  0  0  0  0  0  0
    3.1043    1.8288   -0.2980 C   0  0  0  0  0  0  0  0  0  0  0  0
    3.8586    1.9779   -1.4655 C   0  0  0  0  0  0  0  0  0  0  0  0
    5.2520    2.0578   -1.4081 C   0  0  0  0  0  0  0  0  0  0  0  0
    5.9040    2.0034   -0.1763 C   0  0  0  0  0  0  0  0  0  0  0  0
    5.1660    1.8736    1.0009 C   0  0  0  0  0  0  0  0  0  0  0  0
    3.7742    1.7925    0.9359 C   0  0  0  0  0  0  0  0  0  0  0  0
    3.0477    1.6470    2.0880 O   0  0  0  0  0  0  0  0  0  0  0  0
   -0.3075    0.8047   -0.3580 N   0  0  0  0  0  0  0  0  0  0  0  0
   -1.1152   -0.2102   -0.2760 C   0  0  0  0  0  0  0  0  0  0  0  0
   -2.4466    0.0813   -0.3533 N   0  0  0  0  0  0  0  0  0  0  0  0
   -3.4682   -0.7856    0.1905 C   0  0  0  0  0  0  0  0  0  0  0  0
   -4.8653   -0.2464   -0.1206 C   0  0  0  0  0  0  0  0  0  0  0  0
   -5.2212    0.9959    0.7003 C   0  0  0  0  0  0  0  0  0  0  0  0
   -6.6400    1.4626    0.4122 C   0  0  0  0  0  0  0  0  0  0  0  0
   -0.7382   -1.5171   -0.1238 N   0  0  0  0  0  0  0  0  0  0  0  0
    0.5240   -1.7616   -0.0674 C   0  0  0  0  0  0  0  0  0  0  0  0
    1.1597   -3.0003    0.0395 N   0  0  0  0  0  0  0  0  0  0  0  0
    0.5592   -4.0832    0.7932 C   0  0  0  0  0  0  0  0  0  0  0  0
    3.1569   -3.2814   -0.3406 H   0  0  0  0  0  0  0  0  0  0  0  0
    3.6835   -0.9604    0.0195 H   0  0  0  0  0  0  0  0  0  0  0  0
    3.3492    2.0430   -2.4235 H   0  0  0  0  0  0  0  0  0  0  0  0
    5.8246    2.1747   -2.3247 H   0  0  0  0  0  0  0  0  0  0  0  0
    6.9883    2.0710   -0.1339 H   0  0  0  0  0  0  0  0  0  0  0  0
    5.6861    1.8328    1.9527 H   0  0  0  0  0  0  0  0  0  0  0  0
    3.6065    1.8921    2.8417 H   0  0  0  0  0  0  0  0  0  0  0  0
   -2.5979    1.0782   -0.2587 H   0  0  0  0  0  0  0  0  0  0  0  0
   -3.3788   -1.7818   -0.2582 H   0  0  0  0  0  0  0  0  0  0  0  0
   -3.3352   -0.8949    1.2730 H   0  0  0  0  0  0  0  0  0  0  0  0
   -5.5956   -1.0349    0.1002 H   0  0  0  0  0  0  0  0  0  0  0  0
   -4.9504   -0.0209   -1.1909 H   0  0  0  0  0  0  0  0  0  0  0  0
   -4.5289    1.8146    0.4769 H   0  0  0  0  0  0  0  0  0  0  0  0
   -5.1273    0.7740    1.7697 H   0  0  0  0  0  0  0  0  0  0  0  0
   -6.7604    1.7215   -0.6446 H   0  0  0  0  0  0  0  0  0  0  0  0
   -6.8754    2.3497    1.0084 H   0  0  0  0  0  0  0  0  0  0  0  0
   -7.3678    0.6836    0.6608 H   0  0  0  0  0  0  0  0  0  0  0  0
    0.4943   -3.8287    1.8563 H   0  0  0  0  0  0  0  0  0  0  0  0
    1.1555   -4.9956    0.6900 H   0  0  0  0  0  0  0  0  0  0  0  0
   -0.4479   -4.2992    0.4224 H   0  0  0  0  0  0  0  0  0  0  0  0
  1  2  1  0
  2  3  2  0
  3  4  1  0
  4  5  2  3
  5  6  1  0
  6  7  2  0
  7  8  1  0
  8  9  2  0
  9 10  1  0
 10 11  2  0
 11 12  1  0
  4 13  1  0
 13 14  2  0
 14 15  1  0
 15 16  1  0
 16 17  1  0
 17 18  1  0
 18 19  1  0
 14 20  1  0
 20 21  2  0
 21 22  1  0
 22 23  1  0
 22  1  1  0
 21  3  1  0
 11  6  1  0
  1 24  1  0
  2 25  1  0
  7 26  1  0
  8 27  1  0
  9 28  1  0
 10 29  1  0
 12 30  1  0
 15 31  1  0
 16 32  1  0
 16 33  1  0
 17 34  1  0
 17 35  1  0
 18 36  1  0
 18 37  1  0
 19 38  1  0
 19 39  1  0
 19 40  1  0
 23 41  1  0
 23 42  1  0
 23 43  1  0
M  END
>  <ScrubInfo>  (5) 
{"isomerGroup": 0, "isomerId": 4, "confId": 0, "nr_conformers:": 1, "nr_isomers:": 9}

$$$$
_i5
     RDKit          3D

 43 45  0  0  0  0  0  0  0  0999 V2000
    0.4538   -1.4341   -0.2266 N   0  0  0  0  0  0  0  0  0  0  0  0
    1.0011   -0.3121   -0.7965 C   0  0  0  0  0  0  0  0  0  0  0  0
    2.3398   -0.3908   -1.0592 N   0  0  0  0  0  0  0  0  0  0  0  0
    3.2955   -0.7005   -0.0014 C   0  0  0  0  0  0  0  0  0  0  0  0
    4.7105   -0.7027   -0.5805 C   0  0  0  0  0  0  0  0  0  0  0  0
    5.7770   -1.1383    0.4258 C   0  0  0  0  0  0  0  0  0  0  0  0
    5.9353   -0.1784    1.5948 C   0  0  0  0  0  0  0  0  0  0  0  0
    0.3536    0.7710   -1.1156 N   0  0  0  0  0  0  0  0  0  0  0  0
   -1.0080    0.8686   -0.8419 C   0  0  0  0  0  0  0  0  0  0  0  0
   -1.5552    2.0127   -1.1012 N   0  0  0  0  0  0  0  0  0  0  0  0
   -2.9005    2.2799   -0.8270 C   0  0  0  0  0  0  0  0  0  0  0  0
   -3.8074    2.3395   -1.8894 C   0  0  0  0  0  0  0  0  0  0  0  0
   -5.1510    2.6462   -1.6624 C   0  0  0  0  0  0  0  0  0  0  0  0
   -5.5968    2.9123   -0.3679 C   0  0  0  0  0  0  0  0  0  0  0  0
   -4.7012    2.8787    0.7018 C   0  0  0  0  0  0  0  0  0  0  0  0
   -3.3601    2.5705    0.4684 C   0  0  0  0  0  0  0  0  0  0  0  0
   -2.4783    2.5250    1.5160 O   0  0  0  0  0  0  0  0  0  0  0  0
   -1.6501   -0.3305   -0.3254 C   0  0  0  0  0  0  0  0  0  0  0  0
   -2.9535   -0.7691   -0.0289 C   0  0  0  0  0  0  0  0  0  0  0  0
   -2.9917   -2.0370    0.4143 N   0  0  0  0  0  0  0  0  0  0  0  0
   -1.6944   -2.4181    0.4003 N   0  0  0  0  0  0  0  0  0  0  0  0
   -1.3506   -3.7514    0.8231 C   0  0  0  0  0  0  0  0  0  0  0  0
   -0.8769   -1.4279   -0.0406 C   0  0  0  0  0  0  0  0  0  0  0  0
    1.0151   -2.2740   -0.2510 H   0  0  0  0  0  0  0  0  0  0  0  0
    2.5998    0.4783   -1.5261 H   0  0  0  0  0  0  0  0  0  0  0  0
    3.0775   -1.6828    0.4317 H   0  0  0  0  0  0  0  0  0  0  0  0
    3.2064    0.0485    0.7928 H   0  0  0  0  0  0  0  0  0  0  0  0
    4.7463   -1.3853   -1.4393 H   0  0  0  0  0  0  0  0  0  0  0  0
    4.9548    0.2938   -0.9696 H   0  0  0  0  0  0  0  0  0  0  0  0
    6.7381   -1.2126   -0.0968 H   0  0  0  0  0  0  0  0  0  0  0  0
    5.5449   -2.1401    0.8055 H   0  0  0  0  0  0  0  0  0  0  0  0
    6.1377    0.8384    1.2438 H   0  0  0  0  0  0  0  0  0  0  0  0
    6.7726   -0.4915    2.2268 H   0  0  0  0  0  0  0  0  0  0  0  0
    5.0385   -0.1571    2.2207 H   0  0  0  0  0  0  0  0  0  0  0  0
   -3.4567    2.1501   -2.9006 H   0  0  0  0  0  0  0  0  0  0  0  0
   -5.8453    2.6847   -2.4979 H   0  0  0  0  0  0  0  0  0  0  0  0
   -6.6428    3.1526   -0.1941 H   0  0  0  0  0  0  0  0  0  0  0  0
   -5.0629    3.0903    1.7029 H   0  0  0  0  0  0  0  0  0  0  0  0
   -2.9156    2.8708    2.3091 H   0  0  0  0  0  0  0  0  0  0  0  0
   -3.8906   -0.2382   -0.1215 H   0  0  0  0  0  0  0  0  0  0  0  0
   -1.8462   -3.9542    1.7761 H   0  0  0  0  0  0  0  0  0  0  0  0
   -0.2690   -3.8336    0.9501 H   0  0  0  0  0  0  0  0  0  0  0  0
   -1.6933   -4.4517    0.0575 H   0  0  0  0  0  0  0  0  0  0  0  0
  1  2  1  0
  2  3  1  0
  3  4  1  0
  4  5  1  0
  5  6  1  0
  6  7  1  0
  2  8  2  0
  8  9  1  0
  9 10  2  3
 10 11  1  0
 11 12  2  0
 12 13  1  0
 13 14  2  0
 14 15  1  0
 15 16  2  0
 16 17  1  0
  9 18  1  0
 18 19  1  0
 19 20  2  0
 20 21  1  0
 21 22  1  0
 21 23  1  0
 23  1  1  0
 16 11  1  0
 23 18  2  0
  1 24  1  0
  3 25  1  0
  4 26  1  0
  4 27  1  0
  5 28  1  0
  5 29  1  0
  6 30  1  0
  6 31  1  0
  7 32  1  0
  7 33  1  0
  7 34  1  0
 12 35  1  0
 13 36  1  0
 14 37  1  0
 15 38  1  0
 17 39  1  0
 19 40  1  0
 22 41  1  0
 22 42  1  0
 22 43  1  0
M  END
>  <ScrubInfo>  (6) 
{"isomerGroup": 0, "isomerId": 5, "confId": 0, "nr_conformers:": 1, "nr_isomers:": 9}

$$$$
_i6
     RDKit          3D

 43 45  0  0  0  0  0  0  0  0999 V2000
   -0.9890    2.1472   -2.2365 N   0  0  0  0  0  0  0  0  0  0  0  0
   -1.6780    1.0064   -1.8387 C   0  0  0  0  0  0  0  0  0  0  0  0
   -0.9829    0.2511   -0.9779 C   0  0  0  0  0  0  0  0  0  0  0  0
   -1.1436   -0.9848   -0.2158 C   0  0  0  0  0  0  0  0  0  0  0  0
   -2.2632   -1.7909   -0.2800 N   0  0  0  0  0  0  0  0  0  0  0  0
   -3.5786   -1.2733   -0.1574 C   0  0  0  0  0  0  0  0  0  0  0  0
   -3.9004   -0.2403    0.7307 C   0  0  0  0  0  0  0  0  0  0  0  0
   -5.2276    0.1731    0.8826 C   0  0  0  0  0  0  0  0  0  0  0  0
   -6.2475   -0.4599    0.1705 C   0  0  0  0  0  0  0  0  0  0  0  0
   -5.9460   -1.5134   -0.6900 C   0  0  0  0  0  0  0  0  0  0  0  0
   -4.6236   -1.9147   -0.8380 C   0  0  0  0  0  0  0  0  0  0  0  0
   -4.3580   -2.9502   -1.6927 O   0  0  0  0  0  0  0  0  0  0  0  0
   -0.1638   -1.3699    0.5528 N   0  0  0  0  0  0  0  0  0  0  0  0
    0.9668   -0.5852    0.6429 C   0  0  0  0  0  0  0  0  0  0  0  0
    1.8250   -1.0241    1.4927 N   0  0  0  0  0  0  0  0  0  0  0  0
    3.0707   -0.2893    1.7017 C   0  0  0  0  0  0  0  0  0  0  0  0
    4.1493   -0.8276    0.7619 C   0  0  0  0  0  0  0  0  0  0  0  0
    5.4707   -0.0630    0.8545 C   0  0  0  0  0  0  0  0  0  0  0  0
    6.1562   -0.1968    2.2054 C   0  0  0  0  0  0  0  0  0  0  0  0
    1.2340    0.5596   -0.0731 N   0  0  0  0  0  0  0  0  0  0  0  0
    0.3076    0.9638   -0.8705 C   0  0  0  0  0  0  0  0  0  0  0  0
    0.3027    2.0652   -1.7265 N   0  0  0  0  0  0  0  0  0  0  0  0
    1.0077    3.2847   -1.3816 C   0  0  0  0  0  0  0  0  0  0  0  0
   -1.0663    2.3404   -3.2381 H   0  0  0  0  0  0  0  0  0  0  0  0
   -2.6676    0.8240   -2.2338 H   0  0  0  0  0  0  0  0  0  0  0  0
   -2.1532   -2.5497    0.3956 H   0  0  0  0  0  0  0  0  0  0  0  0
   -3.1296    0.2461    1.3240 H   0  0  0  0  0  0  0  0  0  0  0  0
   -5.4678    0.9817    1.5692 H   0  0  0  0  0  0  0  0  0  0  0  0
   -7.2791   -0.1400    0.2957 H   0  0  0  0  0  0  0  0  0  0  0  0
   -6.7344   -2.0203   -1.2386 H   0  0  0  0  0  0  0  0  0  0  0  0
   -3.3865   -3.0291   -1.7283 H   0  0  0  0  0  0  0  0  0  0  0  0
    2.9516    0.7951    1.5918 H   0  0  0  0  0  0  0  0  0  0  0  0
    3.3715   -0.4506    2.7427 H   0  0  0  0  0  0  0  0  0  0  0  0
    3.7928   -0.7712   -0.2741 H   0  0  0  0  0  0  0  0  0  0  0  0
    4.3205   -1.8915    0.9687 H   0  0  0  0  0  0  0  0  0  0  0  0
    5.3038    0.9977    0.6336 H   0  0  0  0  0  0  0  0  0  0  0  0
    6.1478   -0.4447    0.0810 H   0  0  0  0  0  0  0  0  0  0  0  0
    6.3076   -1.2488    2.4670 H   0  0  0  0  0  0  0  0  0  0  0  0
    7.1365    0.2900    2.1787 H   0  0  0  0  0  0  0  0  0  0  0  0
    5.5730    0.2777    2.9999 H   0  0  0  0  0  0  0  0  0  0  0  0
    0.9701    3.9947   -2.2141 H   0  0  0  0  0  0  0  0  0  0  0  0
    2.0608    3.0740   -1.1692 H   0  0  0  0  0  0  0  0  0  0  0  0
    0.5600    3.7567   -0.5008 H   0  0  0  0  0  0  0  0  0  0  0  0
  1  2  1  0
  2  3  2  0
  3  4  1  0
  4  5  1  0
  5  6  1  0
  6  7  2  0
  7  8  1  0
  8  9  2  0
  9 10  1  0
 10 11  2  0
 11 12  1  0
  4 13  2  0
 13 14  1  0
 14 15  2  3
 15 16  1  0
 16 17  1  0
 17 18  1  0
 18 19  1  0
 14 20  1  0
 20 21  2  0
 21 22  1  0
 22 23  1  0
 22  1  1  0
 21  3  1  0
 11  6  1  0
  1 24  1  0
  2 25  1  0
  5 26  1  0
  7 27  1  0
  8 28  1  0
  9 29  1  0
 10 30  1  0
 12 31  1  0
 16 32  1  0
 16 33  1  0
 17 34  1  0
 17 35  1  0
 18 36  1  0
 18 37  1  0
 19 38  1  0
 19 39  1  0
 19 40  1  0
 23 41  1  0
 23 42  1  0
 23 43  1  0
M  END
>  <ScrubInfo>  (7) 
{"isomerGroup": 0, "isomerId": 6, "confId": 0, "nr_conformers:": 1, "nr_isomers:": 9}

$$$$
_i7
     RDKit          3D

 43 45  0  0  0  0  0  0  0  0999 V2000
   -0.6867   -4.1485   -0.8873 N   0  0  0  0  0  0  0  0  0  0  0  0
   -1.7214   -3.2563   -0.6264 C   0  0  0  0  0  0  0  0  0  0  0  0
   -1.2861   -2.0413   -0.2732 C   0  0  0  0  0  0  0  0  0  0  0  0
   -1.8596   -0.7587    0.1424 C   0  0  0  0  0  0  0  0  0  0  0  0
   -3.1517   -0.6310    0.1862 N   0  0  0  0  0  0  0  0  0  0  0  0
   -3.7194    0.5930    0.5835 C   0  0  0  0  0  0  0  0  0  0  0  0
   -4.4911    0.6150    1.7487 C   0  0  0  0  0  0  0  0  0  0  0  0
   -5.1083    1.7931    2.1761 C   0  0  0  0  0  0  0  0  0  0  0  0
   -4.9677    2.9638    1.4321 C   0  0  0  0  0  0  0  0  0  0  0  0
   -4.2137    2.9596    0.2586 C   0  0  0  0  0  0  0  0  0  0  0  0
   -3.5998    1.7787   -0.1619 C   0  0  0  0  0  0  0  0  0  0  0  0
   -2.8458    1.7777   -1.3060 O   0  0  0  0  0  0  0  0  0  0  0  0
   -0.8884    0.1584    0.4530 N   0  0  0  0  0  0  0  0  0  0  0  0
    0.4666   -0.0185    0.3714 C   0  0  0  0  0  0  0  0  0  0  0  0
    1.2292    0.9790    0.6808 N   0  0  0  0  0  0  0  0  0  0  0  0
    2.6816    0.8077    0.6062 C   0  0  0  0  0  0  0  0  0  0  0  0
    3.1764    1.2159   -0.7811 C   0  0  0  0  0  0  0  0  0  0  0  0
    4.6768    0.9942   -0.9788 C   0  0  0  0  0  0  0  0  0  0  0  0
    5.5426    1.8660   -0.0826 C   0  0  0  0  0  0  0  0  0  0  0  0
    1.0204   -1.2147   -0.0414 N   0  0  0  0  0  0  0  0  0  0  0  0
    0.2015   -2.1658   -0.3673 C   0  0  0  0  0  0  0  0  0  0  0  0
    0.5153   -3.4439   -0.8391 N   0  0  0  0  0  0  0  0  0  0  0  0
    1.7158   -4.1272   -0.3984 C   0  0  0  0  0  0  0  0  0  0  0  0
   -0.8439   -4.7074   -1.7290 H   0  0  0  0  0  0  0  0  0  0  0  0
   -2.7481   -3.5810   -0.7203 H   0  0  0  0  0  0  0  0  0  0  0  0
   -4.6131   -0.2990    2.3242 H   0  0  0  0  0  0  0  0  0  0  0  0
   -5.7025    1.7927    3.0864 H   0  0  0  0  0  0  0  0  0  0  0  0
   -5.4495    3.8794    1.7666 H   0  0  0  0  0  0  0  0  0  0  0  0
   -4.1117    3.8796   -0.3087 H   0  0  0  0  0  0  0  0  0  0  0  0
   -3.0151    2.5994   -1.7944 H   0  0  0  0  0  0  0  0  0  0  0  0
   -1.1735    1.0948    0.6925 H   0  0  0  0  0  0  0  0  0  0  0  0
    3.1235    1.4622    1.3655 H   0  0  0  0  0  0  0  0  0  0  0  0
    3.0060   -0.2075    0.8637 H   0  0  0  0  0  0  0  0  0  0  0  0
    2.6412    0.6382   -1.5449 H   0  0  0  0  0  0  0  0  0  0  0  0
    2.9290    2.2688   -0.9652 H   0  0  0  0  0  0  0  0  0  0  0  0
    4.9231   -0.0605   -0.8098 H   0  0  0  0  0  0  0  0  0  0  0  0
    4.9256    1.2139   -2.0240 H   0  0  0  0  0  0  0  0  0  0  0  0
    5.2960    2.9251   -0.2075 H   0  0  0  0  0  0  0  0  0  0  0  0
    6.5991    1.7321   -0.3361 H   0  0  0  0  0  0  0  0  0  0  0  0
    5.4198    1.6034    0.9722 H   0  0  0  0  0  0  0  0  0  0  0  0
    1.8396   -5.0690   -0.9427 H   0  0  0  0  0  0  0  0  0  0  0  0
    2.6015   -3.5128   -0.5891 H   0  0  0  0  0  0  0  0  0  0  0  0
    1.6663   -4.3484    0.6729 H   0  0  0  0  0  0  0  0  0  0  0  0
  1  2  1  0
  2  3  2  0
  3  4  1  0
  4  5  2  3
  5  6  1  0
  6  7  2  0
  7  8  1  0
  8  9  2  0
  9 10  1  0
 10 11  2  0
 11 12  1  0
  4 13  1  0
 13 14  1  0
 14 15  2  3
 15 16  1  0
 16 17  1  0
 17 18  1  0
 18 19  1  0
 14 20  1  0
 20 21  2  0
 21 22  1  0
 22 23  1  0
 22  1  1  0
 21  3  1  0
 11  6  1  0
  1 24  1  0
  2 25  1  0
  7 26  1  0
  8 27  1  0
  9 28  1  0
 10 29  1  0
 12 30  1  0
 13 31  1  0
 16 32  1  0
 16 33  1  0
 17 34  1  0
 17 35  1  0
 18 36  1  0
 18 37  1  0
 19 38  1  0
 19 39  1  0
 19 40  1  0
 23 41  1  0
 23 42  1  0
 23 43  1  0
M  END
>  <ScrubInfo>  (8) 
{"isomerGroup": 0, "isomerId": 7, "confId": 0, "nr_conformers:": 1, "nr_isomers:": 9}

$$$$
_i8
     RDKit          3D

 43 45  0  0  0  0  0  0  0  0999 V2000
    0.9278   -1.1580   -1.3419 N   0  0  0  0  0  0  0  0  0  0  0  0
    0.7002   -0.6527   -0.0703 C   0  0  0  0  0  0  0  0  0  0  0  0
    1.5615   -0.4062    0.8563 N   0  0  0  0  0  0  0  0  0  0  0  0
    2.9788   -0.6768    0.6417 C   0  0  0  0  0  0  0  0  0  0  0  0
    3.6657    0.5063   -0.0407 C   0  0  0  0  0  0  0  0  0  0  0  0
    3.5696    1.8330    0.7191 C   0  0  0  0  0  0  0  0  0  0  0  0
    4.2336    1.8009    2.0868 C   0  0  0  0  0  0  0  0  0  0  0  0
   -0.6305   -0.3874    0.1910 N   0  0  0  0  0  0  0  0  0  0  0  0
   -1.7574   -0.5406   -0.5915 C   0  0  0  0  0  0  0  0  0  0  0  0
   -3.0041   -0.2895   -0.3572 N   0  0  0  0  0  0  0  0  0  0  0  0
   -3.3409    0.2059    0.9143 C   0  0  0  0  0  0  0  0  0  0  0  0
   -3.4773   -0.6453    2.0127 C   0  0  0  0  0  0  0  0  0  0  0  0
   -3.7939   -0.1227    3.2697 C   0  0  0  0  0  0  0  0  0  0  0  0
   -3.9855    1.2520    3.4309 C   0  0  0  0  0  0  0  0  0  0  0  0
   -3.8726    2.1079    2.3355 C   0  0  0  0  0  0  0  0  0  0  0  0
   -3.5623    1.5771    1.0902 C   0  0  0  0  0  0  0  0  0  0  0  0
   -3.4744    2.4227    0.0177 O   0  0  0  0  0  0  0  0  0  0  0  0
   -1.4111   -1.0694   -1.8892 C   0  0  0  0  0  0  0  0  0  0  0  0
   -2.1272   -1.4178   -3.0436 C   0  0  0  0  0  0  0  0  0  0  0  0
   -1.3278   -1.8774   -4.0181 N   0  0  0  0  0  0  0  0  0  0  0  0
   -0.0870   -1.8204   -3.4759 N   0  0  0  0  0  0  0  0  0  0  0  0
    1.0377   -2.2537   -4.2657 C   0  0  0  0  0  0  0  0  0  0  0  0
   -0.1019   -1.3463   -2.1989 C   0  0  0  0  0  0  0  0  0  0  0  0
    1.8864   -1.3505   -1.5965 H   0  0  0  0  0  0  0  0  0  0  0  0
    3.1363   -1.5929    0.0606 H   0  0  0  0  0  0  0  0  0  0  0  0
    3.4425   -0.8730    1.6144 H   0  0  0  0  0  0  0  0  0  0  0  0
    4.7229    0.2570   -0.1938 H   0  0  0  0  0  0  0  0  0  0  0  0
    3.2336    0.6526   -1.0380 H   0  0  0  0  0  0  0  0  0  0  0  0
    2.5212    2.1325    0.8298 H   0  0  0  0  0  0  0  0  0  0  0  0
    4.0536    2.6107    0.1159 H   0  0  0  0  0  0  0  0  0  0  0  0
    5.2754    1.4741    2.0107 H   0  0  0  0  0  0  0  0  0  0  0  0
    4.2240    2.8010    2.5321 H   0  0  0  0  0  0  0  0  0  0  0  0
    3.7081    1.1294    2.7720 H   0  0  0  0  0  0  0  0  0  0  0  0
   -0.7752    0.0009    1.1125 H   0  0  0  0  0  0  0  0  0  0  0  0
   -3.3386   -1.7160    1.8900 H   0  0  0  0  0  0  0  0  0  0  0  0
   -3.8968   -0.7883    4.1234 H   0  0  0  0  0  0  0  0  0  0  0  0
   -4.2343    1.6555    4.4094 H   0  0  0  0  0  0  0  0  0  0  0  0
   -4.0339    3.1756    2.4484 H   0  0  0  0  0  0  0  0  0  0  0  0
   -3.3874    1.8313   -0.7567 H   0  0  0  0  0  0  0  0  0  0  0  0
   -3.1940   -1.3583   -3.2179 H   0  0  0  0  0  0  0  0  0  0  0  0
    1.9703   -1.9653   -3.7765 H   0  0  0  0  0  0  0  0  0  0  0  0
    0.9785   -1.7770   -5.2476 H   0  0  0  0  0  0  0  0  0  0  0  0
    0.9865   -3.3408   -4.3650 H   0  0  0  0  0  0  0  0  0  0  0  0
  1  2  1  0
  2  3  2  3
  3  4  1  0
  4  5  1  0
  5  6  1  0
  6  7  1  0
  2  8  1  0
  8  9  1  0
  9 10  2  3
 10 11  1  0
 11 12  2  0
 12 13  1  0
 13 14  2  0
 14 15  1  0
 15 16  2  0
 16 17  1  0
  9 18  1  0
 18 19  1  0
 19 20  2  0
 20 21  1  0
 21 22  1  0
 21 23  1  0
 23  1  1  0
 16 11  1  0
 23 18  2  0
  1 24  1  0
  4 25  1  0
  4 26  1  0
  5 27  1  0
  5 28  1  0
  6 29  1  0
  6 30  1  0
  7 31  1  0
  7 32  1  0
  7 33  1  0
  8 34  1  0
 12 35  1  0
 13 36  1  0
 14 37  1  0
 15 38  1  0
 17 39  1  0
 19 40  1  0
 22 41  1  0
 22 42  1  0
 22 43  1  0
M  END
>  <ScrubInfo>  (9) 
{"isomerGroup": 0, "isomerId": 8, "confId": 0, "nr_conformers:": 1, "nr_isomers:": 9}

$$$$
