_i0
     RDKit          3D

 48 51  0  0  0  0  0  0  0  0999 V2000
   -3.6694   -2.3508   -1.6084 C   0  0  0  0  0  0  0  0  0  0  0  0
   -4.1268   -1.0392   -0.9912 N   0  0  0  0  0  4  0  0  0  0  0  0
   -5.5072   -1.0298   -0.3627 C   0  0  0  0  0  0  0  0  0  0  0  0
   -3.7985    0.2322   -1.7696 C   0  0  0  0  0  0  0  0  0  0  0  0
   -4.4749   -2.8560   -2.8224 C   0  0  0  0  0  0  0  0  0  0  0  0
   -4.4938   -1.9390   -3.9546 N   0  0  0  0  0  0  0  0  0  0  0  0
   -3.3552   -1.9720   -4.7546 C   0  0  0  0  0  0  0  0  0  0  0  0
   -3.5616   -1.8442   -6.0568 N   0  0  0  0  0  0  0  0  0  0  0  0
   -2.1591   -2.0869   -4.1938 N   0  0  0  0  0  0  0  0  0  0  0  0
   -2.4852   -1.8539   -6.8707 C   0  0  0  0  0  0  0  0  0  0  0  0
   -1.1001   -2.0943   -4.9952 C   0  0  0  0  0  0  0  0  0  0  0  0
   -2.6371   -1.6881   -8.2741 N   0  0  0  0  0  0  0  0  0  0  0  0
   -1.1845   -1.9825   -6.3886 C   0  0  0  0  0  0  0  0  0  0  0  0
    0.0930   -2.2185   -4.4073 N   0  0  0  0  0  0  0  0  0  0  0  0
   -3.7668   -1.4946   -9.0847 C   0  0  0  0  0  0  0  0  0  0  0  0
   -0.0819   -2.0109   -7.1969 N   0  0  0  0  0  0  0  0  0  0  0  0
    1.1890   -2.2397   -5.2042 C   0  0  0  0  0  0  0  0  0  0  0  0
   -5.0012   -1.0461   -8.6014 C   0  0  0  0  0  0  0  0  0  0  0  0
   -3.6469   -1.7160  -10.4676 C   0  0  0  0  0  0  0  0  0  0  0  0
    1.1059   -2.1389   -6.5752 C   0  0  0  0  0  0  0  0  0  0  0  0
   -6.0895   -0.8522   -9.4610 C   0  0  0  0  0  0  0  0  0  0  0  0
   -4.7302   -1.5255  -11.3323 C   0  0  0  0  0  0  0  0  0  0  0  0
   -5.9502   -1.0967  -10.8229 C   0  0  0  0  0  0  0  0  0  0  0  0
   -7.2867   -0.8594  -11.8775 Cl  0  0  0  0  0  0  0  0  0  0  0  0
   -6.5600   -0.4153   -1.2833 C   0  0  0  0  0  0  0  0  0  0  0  0
   -6.1605    0.8977   -1.6794 O   0  0  0  0  0  0  0  0  0  0  0  0
   -4.9974    0.8373   -2.5104 C   0  0  0  0  0  0  0  0  0  0  0  0
   -2.6046   -2.2294   -1.8231 H   0  0  0  0  0  0  0  0  0  0  0  0
   -3.7405   -3.0935   -0.8045 H   0  0  0  0  0  0  0  0  0  0  0  0
   -3.4960   -0.9653   -0.1834 H   0  0  0  0  0  0  0  0  0  0  0  0
   -5.4062   -0.4151    0.5392 H   0  0  0  0  0  0  0  0  0  0  0  0
   -5.7594   -2.0522   -0.0660 H   0  0  0  0  0  0  0  0  0  0  0  0
   -2.9467    0.0382   -2.4267 H   0  0  0  0  0  0  0  0  0  0  0  0
   -3.4745    0.9441   -1.0007 H   0  0  0  0  0  0  0  0  0  0  0  0
   -4.0965   -3.8404   -3.1281 H   0  0  0  0  0  0  0  0  0  0  0  0
   -5.5110   -3.0240   -2.5081 H   0  0  0  0  0  0  0  0  0  0  0  0
   -5.2528   -2.1125   -4.6174 H   0  0  0  0  0  0  0  0  0  0  0  0
   -1.8168   -2.0432   -8.7635 H   0  0  0  0  0  0  0  0  0  0  0  0
    2.1440   -2.3427   -4.6993 H   0  0  0  0  0  0  0  0  0  0  0  0
   -5.1395   -0.8195   -7.5499 H   0  0  0  0  0  0  0  0  0  0  0  0
   -2.7010   -2.0458  -10.8921 H   0  0  0  0  0  0  0  0  0  0  0  0
    1.9867   -2.1576   -7.2079 H   0  0  0  0  0  0  0  0  0  0  0  0
   -7.0372   -0.5031   -9.0600 H   0  0  0  0  0  0  0  0  0  0  0  0
   -4.6110   -1.7103  -12.3967 H   0  0  0  0  0  0  0  0  0  0  0  0
   -7.5067   -0.3228   -0.7415 H   0  0  0  0  0  0  0  0  0  0  0  0
   -6.7493   -1.0312   -2.1685 H   0  0  0  0  0  0  0  0  0  0  0  0
   -5.2465    0.3073   -3.4309 H   0  0  0  0  0  0  0  0  0  0  0  0
   -4.7522    1.8638   -2.8034 H   0  0  0  0  0  0  0  0  0  0  0  0
  1  2  1  0
  2  3  1  0
  2  4  1  0
  5  1  1  0
  6  5  1  0
  7  6  1  0
  8  7  2  0
  7  9  1  0
 10  8  1  0
  9 11  2  0
 12 10  1  0
 13 10  2  0
 11 14  1  0
 13 11  1  0
 15 12  1  0
 16 13  1  0
 14 17  2  0
 18 15  2  0
 15 19  1  0
 20 16  2  0
 17 20  1  0
 21 18  1  0
 19 22  2  0
 23 21  2  0
 22 23  1  0
 24 23  1  0
  3 25  1  0
 25 26  1  0
 26 27  1  0
 27  4  1  0
  1 28  1  0
  1 29  1  0
  2 30  1  0
  3 31  1  0
  3 32  1  0
  4 33  1  0
  4 34  1  0
  5 35  1  0
  5 36  1  0
  6 37  1  0
 12 38  1  0
 17 39  1  0
 18 40  1  0
 19 41  1  0
 20 42  1  0
 21 43  1  0
 22 44  1  0
 25 45  1  0
 25 46  1  0
 27 47  1  0
 27 48  1  0
M  CHG  1   2   1
M  END
>  <ScrubInfo>  (1) 
{"isomerGroup": 0, "isomerId": 0, "confId": 0, "nr_conformers:": 1, "nr_isomers:": 9}

$$$$
_i1
     RDKit          3D

 48 51  0  0  0  0  0  0  0  0999 V2000
   -6.5951   -1.3794    6.7864 N   0  0  0  0  0  0  0  0  0  0  0  0
   -5.5073   -1.3743    7.6344 C   0  0  0  0  0  0  0  0  0  0  0  0
   -5.6376   -1.5224    9.0068 N   0  0  0  0  0  0  0  0  0  0  0  0
   -6.6739   -1.1091    9.8635 C   0  0  0  0  0  0  0  0  0  0  0  0
   -6.7247   -1.6626   11.1532 C   0  0  0  0  0  0  0  0  0  0  0  0
   -7.7528   -1.3354   12.0431 C   0  0  0  0  0  0  0  0  0  0  0  0
   -8.7496   -0.4505   11.6478 C   0  0  0  0  0  0  0  0  0  0  0  0
  -10.0166   -0.0421   12.7351 Cl  0  0  0  0  0  0  0  0  0  0  0  0
   -8.7240    0.1063   10.3728 C   0  0  0  0  0  0  0  0  0  0  0  0
   -7.6936   -0.2267    9.4855 C   0  0  0  0  0  0  0  0  0  0  0  0
   -4.2685   -1.2942    7.0875 C   0  0  0  0  0  0  0  0  0  0  0  0
   -3.1087   -1.3231    7.8301 N   0  0  0  0  0  0  0  0  0  0  0  0
   -2.0198   -1.1573    7.1550 C   0  0  0  0  0  0  0  0  0  0  0  0
   -2.0113   -0.9314    5.6770 C   0  0  0  0  0  0  0  0  0  0  0  0
   -3.0852   -0.9240    4.9566 N   0  0  0  0  0  0  0  0  0  0  0  0
   -4.2841   -1.1545    5.5863 C   0  0  0  0  0  0  0  0  0  0  0  0
   -5.3123   -1.2046    4.8018 N   0  0  0  0  0  0  0  0  0  0  0  0
   -6.5082   -1.4290    5.4314 C   0  0  0  0  0  0  0  0  0  0  0  0
   -7.5541   -1.6558    4.7182 N   0  0  0  0  0  0  0  0  0  0  0  0
   -7.4583   -1.8446    3.2658 C   0  0  0  0  0  0  0  0  0  0  0  0
   -7.4002   -0.5132    2.5024 C   0  0  0  0  0  0  0  0  0  0  0  0
   -6.0048    0.0723    2.5376 N   0  0  0  0  0  4  0  0  0  0  0  0
   -5.0528   -0.4663    1.4846 C   0  0  0  0  0  0  0  0  0  0  0  0
   -5.3004    0.2166    0.1331 C   0  0  0  0  0  0  0  0  0  0  0  0
   -5.2271    1.6437    0.2453 O   0  0  0  0  0  0  0  0  0  0  0  0
   -6.1932    2.1536    1.1736 C   0  0  0  0  0  0  0  0  0  0  0  0
   -5.9551    1.5840    2.5750 C   0  0  0  0  0  0  0  0  0  0  0  0
   -7.4611   -1.7030    7.2012 H   0  0  0  0  0  0  0  0  0  0  0  0
   -4.7359   -1.6181    9.4791 H   0  0  0  0  0  0  0  0  0  0  0  0
   -5.9632   -2.3701   11.4753 H   0  0  0  0  0  0  0  0  0  0  0  0
   -7.7695   -1.7778   13.0359 H   0  0  0  0  0  0  0  0  0  0  0  0
   -9.4981    0.8044   10.0648 H   0  0  0  0  0  0  0  0  0  0  0  0
   -7.6889    0.2522    8.5114 H   0  0  0  0  0  0  0  0  0  0  0  0
   -1.0298   -1.1669    7.6374 H   0  0  0  0  0  0  0  0  0  0  0  0
   -1.0174   -0.7636    5.2340 H   0  0  0  0  0  0  0  0  0  0  0  0
   -6.6303   -2.5120    2.9998 H   0  0  0  0  0  0  0  0  0  0  0  0
   -8.3714   -2.3679    2.9585 H   0  0  0  0  0  0  0  0  0  0  0  0
   -7.6773   -0.6469    1.4528 H   0  0  0  0  0  0  0  0  0  0  0  0
   -8.0814    0.2129    2.9588 H   0  0  0  0  0  0  0  0  0  0  0  0
   -5.6061   -0.2540    3.4407 H   0  0  0  0  0  0  0  0  0  0  0  0
   -4.0461   -0.2354    1.8498 H   0  0  0  0  0  0  0  0  0  0  0  0
   -5.1749   -1.5515    1.4282 H   0  0  0  0  0  0  0  0  0  0  0  0
   -6.2726   -0.0605   -0.2891 H   0  0  0  0  0  0  0  0  0  0  0  0
   -4.5325   -0.0977   -0.5809 H   0  0  0  0  0  0  0  0  0  0  0  0
   -7.2017    1.9252    0.8104 H   0  0  0  0  0  0  0  0  0  0  0  0
   -6.0863    3.2426    1.1960 H   0  0  0  0  0  0  0  0  0  0  0  0
   -6.6909    1.9365    3.3037 H   0  0  0  0  0  0  0  0  0  0  0  0
   -4.9504    1.8403    2.9293 H   0  0  0  0  0  0  0  0  0  0  0  0
  1  2  1  0
  2  3  1  0
  3  4  1  0
  4  5  2  0
  5  6  1  0
  6  7  2  0
  7  8  1  0
  7  9  1  0
  9 10  2  0
  2 11  2  0
 11 12  1  0
 12 13  2  0
 13 14  1  0
 14 15  2  0
 15 16  1  0
 16 17  2  0
 17 18  1  0
 18 19  2  3
 19 20  1  0
 20 21  1  0
 21 22  1  0
 22 23  1  0
 23 24  1  0
 24 25  1  0
 25 26  1  0
 26 27  1  0
 18  1  1  0
 27 22  1  0
 10  4  1  0
 16 11  1  0
  1 28  1  0
  3 29  1  0
  5 30  1  0
  6 31  1  0
  9 32  1  0
 10 33  1  0
 13 34  1  0
 14 35  1  0
 20 36  1  0
 20 37  1  0
 21 38  1  0
 21 39  1  0
 22 40  1  0
 23 41  1  0
 23 42  1  0
 24 43  1  0
 24 44  1  0
 26 45  1  0
 26 46  1  0
 27 47  1  0
 27 48  1  0
M  CHG  1  22   1
M  END
>  <ScrubInfo>  (2) 
{"isomerGroup": 0, "isomerId": 1, "confId": 0, "nr_conformers:": 1, "nr_isomers:": 9}

$$$$
_i2
     RDKit          3D

 48 51  0  0  0  0  0  0  0  0999 V2000
    7.0672   -0.9645    6.8162 N   0  0  0  0  0  0  0  0  0  0  0  0
    6.8912   -0.5953    5.5211 C   0  0  0  0  0  0  0  0  0  0  0  0
    7.7493    0.3647    5.0698 N   0  0  0  0  0  0  0  0  0  0  0  0
    7.5197    1.1383    3.8447 C   0  0  0  0  0  0  0  0  0  0  0  0
    7.7118    0.3188    2.5444 C   0  0  0  0  0  0  0  0  0  0  0  0
    6.5486   -0.6007    2.2464 N   0  0  0  0  0  4  0  0  0  0  0  0
    5.3107    0.0515    1.6593 C   0  0  0  0  0  0  0  0  0  0  0  0
    5.4947    0.2976    0.1562 C   0  0  0  0  0  0  0  0  0  0  0  0
    5.8362   -0.9086   -0.5372 O   0  0  0  0  0  0  0  0  0  0  0  0
    7.0434   -1.4939   -0.0331 C   0  0  0  0  0  0  0  0  0  0  0  0
    6.9064   -1.8424    1.4520 C   0  0  0  0  0  0  0  0  0  0  0  0
    5.9947   -1.1334    4.7486 N   0  0  0  0  0  0  0  0  0  0  0  0
    5.1808   -2.1280    5.3374 C   0  0  0  0  0  0  0  0  0  0  0  0
    4.2894   -2.6540    4.4644 N   0  0  0  0  0  0  0  0  0  0  0  0
    3.4821   -3.6150    4.9836 C   0  0  0  0  0  0  0  0  0  0  0  0
    3.5665   -4.0400    6.3036 C   0  0  0  0  0  0  0  0  0  0  0  0
    4.4649   -3.5284    7.1748 N   0  0  0  0  0  0  0  0  0  0  0  0
    5.2686   -2.5654    6.6689 C   0  0  0  0  0  0  0  0  0  0  0  0
    6.3355   -1.9160    7.4946 C   0  0  0  0  0  0  0  0  0  0  0  0
    6.6664   -2.1276    8.7411 N   0  0  0  0  0  0  0  0  0  0  0  0
    5.9964   -3.0688    9.5285 C   0  0  0  0  0  0  0  0  0  0  0  0
    6.4717   -4.3811    9.6148 C   0  0  0  0  0  0  0  0  0  0  0  0
    5.8234   -5.3160   10.4257 C   0  0  0  0  0  0  0  0  0  0  0  0
    4.7066   -4.9310   11.1652 C   0  0  0  0  0  0  0  0  0  0  0  0
    3.9016   -6.0821   12.1579 Cl  0  0  0  0  0  0  0  0  0  0  0  0
    4.2409   -3.6187   11.1100 C   0  0  0  0  0  0  0  0  0  0  0  0
    4.8926   -2.6873   10.2978 C   0  0  0  0  0  0  0  0  0  0  0  0
    7.8180   -0.5711    7.3680 H   0  0  0  0  0  0  0  0  0  0  0  0
    8.1638    0.9325    5.8065 H   0  0  0  0  0  0  0  0  0  0  0  0
    6.5342    1.6142    3.8815 H   0  0  0  0  0  0  0  0  0  0  0  0
    8.2593    1.9475    3.8329 H   0  0  0  0  0  0  0  0  0  0  0  0
    8.6084   -0.3043    2.6337 H   0  0  0  0  0  0  0  0  0  0  0  0
    7.8305    0.9836    1.6837 H   0  0  0  0  0  0  0  0  0  0  0  0
    6.2408   -0.9635    3.1747 H   0  0  0  0  0  0  0  0  0  0  0  0
    4.4906   -0.6540    1.8336 H   0  0  0  0  0  0  0  0  0  0  0  0
    5.1114    0.9758    2.2073 H   0  0  0  0  0  0  0  0  0  0  0  0
    4.5577    0.6690   -0.2706 H   0  0  0  0  0  0  0  0  0  0  0  0
    6.2646    1.0525   -0.0379 H   0  0  0  0  0  0  0  0  0  0  0  0
    7.8794   -0.8078   -0.2106 H   0  0  0  0  0  0  0  0  0  0  0  0
    7.2335   -2.4051   -0.6088 H   0  0  0  0  0  0  0  0  0  0  0  0
    6.0816   -2.5466    1.6087 H   0  0  0  0  0  0  0  0  0  0  0  0
    7.8237   -2.2669    1.8704 H   0  0  0  0  0  0  0  0  0  0  0  0
    2.7523   -4.0438    4.3039 H   0  0  0  0  0  0  0  0  0  0  0  0
    2.9097   -4.8104    6.6960 H   0  0  0  0  0  0  0  0  0  0  0  0
    7.3489   -4.6760    9.0470 H   0  0  0  0  0  0  0  0  0  0  0  0
    6.1957   -6.3352   10.4791 H   0  0  0  0  0  0  0  0  0  0  0  0
    3.3788   -3.3141   11.6967 H   0  0  0  0  0  0  0  0  0  0  0  0
    4.5380   -1.6616   10.2621 H   0  0  0  0  0  0  0  0  0  0  0  0
  1  2  1  0
  2  3  1  0
  3  4  1  0
  4  5  1  0
  5  6  1  0
  6  7  1  0
  7  8  1  0
  8  9  1  0
  9 10  1  0
 10 11  1  0
  2 12  2  0
 12 13  1  0
 13 14  2  0
 14 15  1  0
 15 16  2  0
 16 17  1  0
 17 18  2  0
 18 19  1  0
 19 20  2  3
 20 21  1  0
 21 22  2  0
 22 23  1  0
 23 24  2  0
 24 25  1  0
 24 26  1  0
 26 27  2  0
 19  1  1  0
 27 21  1  0
 11  6  1  0
 18 13  1  0
  1 28  1  0
  3 29  1  0
  4 30  1  0
  4 31  1  0
  5 32  1  0
  5 33  1  0
  6 34  1  0
  7 35  1  0
  7 36  1  0
  8 37  1  0
  8 38  1  0
 10 39  1  0
 10 40  1  0
 11 41  1  0
 11 42  1  0
 15 43  1  0
 16 44  1  0
 22 45  1  0
 23 46  1  0
 26 47  1  0
 27 48  1  0
M  CHG  1   6   1
M  END
>  <ScrubInfo>  (3) 
{"isomerGroup": 0, "isomerId": 2, "confId": 0, "nr_conformers:": 1, "nr_isomers:": 9}

$$$$
_i3
     RDKit          3D

 48 51  0  0  0  0  0  0  0  0999 V2000
   -1.8073   -0.3986   -2.2307 N   0  0  0  0  0  0  0  0  0  0  0  0
   -0.6932   -0.8976   -1.6395 C   0  0  0  0  0  0  0  0  0  0  0  0
    0.3090   -0.1076   -1.4146 N   0  0  0  0  0  0  0  0  0  0  0  0
    1.4905   -0.7124   -0.7971 C   0  0  0  0  0  0  0  0  0  0  0  0
    2.6000    0.3423   -0.7345 C   0  0  0  0  0  0  0  0  0  0  0  0
    3.7957   -0.1439    0.0633 N   0  0  0  0  0  4  0  0  0  0  0  0
    4.7495    1.0084    0.3716 C   0  0  0  0  0  0  0  0  0  0  0  0
    5.9418    0.4897    1.1814 C   0  0  0  0  0  0  0  0  0  0  0  0
    6.6219   -0.5541    0.4773 O   0  0  0  0  0  0  0  0  0  0  0  0
    5.7662   -1.6760    0.2378 C   0  0  0  0  0  0  0  0  0  0  0  0
    4.5582   -1.2778   -0.6187 C   0  0  0  0  0  0  0  0  0  0  0  0
   -0.5898   -2.2180   -1.2734 N   0  0  0  0  0  0  0  0  0  0  0  0
   -1.5611   -3.0464   -1.5548 C   0  0  0  0  0  0  0  0  0  0  0  0
   -1.5364   -4.3968   -1.2536 N   0  0  0  0  0  0  0  0  0  0  0  0
   -0.6966   -5.1075   -0.3818 C   0  0  0  0  0  0  0  0  0  0  0  0
    0.1251   -4.4972    0.5731 C   0  0  0  0  0  0  0  0  0  0  0  0
    0.9784   -5.2537    1.3845 C   0  0  0  0  0  0  0  0  0  0  0  0
    1.0330   -6.6355    1.2336 C   0  0  0  0  0  0  0  0  0  0  0  0
    2.0938   -7.5601    2.2208 Cl  0  0  0  0  0  0  0  0  0  0  0  0
    0.2373   -7.2660    0.2841 C   0  0  0  0  0  0  0  0  0  0  0  0
   -0.6188   -6.5038   -0.5181 C   0  0  0  0  0  0  0  0  0  0  0  0
   -2.7888   -2.5818   -2.2718 C   0  0  0  0  0  0  0  0  0  0  0  0
   -3.7479   -3.4997   -2.5696 N   0  0  0  0  0  0  0  0  0  0  0  0
   -4.8162   -2.9751   -3.2135 C   0  0  0  0  0  0  0  0  0  0  0  0
   -4.9057   -1.6250   -3.5342 C   0  0  0  0  0  0  0  0  0  0  0  0
   -3.9314   -0.7278   -3.2285 N   0  0  0  0  0  0  0  0  0  0  0  0
   -2.8561   -1.2286   -2.5837 C   0  0  0  0  0  0  0  0  0  0  0  0
   -1.8654    0.5687   -2.5006 H   0  0  0  0  0  0  0  0  0  0  0  0
    1.8380   -1.5660   -1.3899 H   0  0  0  0  0  0  0  0  0  0  0  0
    1.2560   -1.0514    0.2193 H   0  0  0  0  0  0  0  0  0  0  0  0
    2.9526    0.6223   -1.7337 H   0  0  0  0  0  0  0  0  0  0  0  0
    2.2286    1.2415   -0.2296 H   0  0  0  0  0  0  0  0  0  0  0  0
    3.4416   -0.4957    0.9623 H   0  0  0  0  0  0  0  0  0  0  0  0
    5.0729    1.4146   -0.5930 H   0  0  0  0  0  0  0  0  0  0  0  0
    4.1883    1.7606    0.9341 H   0  0  0  0  0  0  0  0  0  0  0  0
    5.6244    0.1186    2.1629 H   0  0  0  0  0  0  0  0  0  0  0  0
    6.6572    1.3012    1.3466 H   0  0  0  0  0  0  0  0  0  0  0  0
    6.3536   -2.4373   -0.2848 H   0  0  0  0  0  0  0  0  0  0  0  0
    5.4483   -2.1002    1.1974 H   0  0  0  0  0  0  0  0  0  0  0  0
    4.8733   -0.9011   -1.5975 H   0  0  0  0  0  0  0  0  0  0  0  0
    3.8768   -2.1241   -0.7334 H   0  0  0  0  0  0  0  0  0  0  0  0
   -2.3299   -4.9301   -1.6090 H   0  0  0  0  0  0  0  0  0  0  0  0
    0.0870   -3.4239    0.7279 H   0  0  0  0  0  0  0  0  0  0  0  0
    1.5874   -4.7604    2.1361 H   0  0  0  0  0  0  0  0  0  0  0  0
    0.2765   -8.3451    0.1584 H   0  0  0  0  0  0  0  0  0  0  0  0
   -1.2236   -7.0166   -1.2637 H   0  0  0  0  0  0  0  0  0  0  0  0
   -5.6106   -3.6687   -3.4708 H   0  0  0  0  0  0  0  0  0  0  0  0
   -5.7725   -1.2246   -4.0512 H   0  0  0  0  0  0  0  0  0  0  0  0
  1  2  1  0
  2  3  2  3
  3  4  1  0
  4  5  1  0
  5  6  1  0
  6  7  1  0
  7  8  1  0
  8  9  1  0
  9 10  1  0
 10 11  1  0
  2 12  1  0
 12 13  2  0
 13 14  1  0
 14 15  1  0
 15 16  2  0
 16 17  1  0
 17 18  2  0
 18 19  1  0
 18 20  1  0
 20 21  2  0
 13 22  1  0
 22 23  2  0
 23 24  1  0
 24 25  2  0
 25 26  1  0
 26 27  2  0
 27  1  1  0
 11  6  1  0
 21 15  1  0
 27 22  1  0
  1 28  1  0
  4 29  1  0
  4 30  1  0
  5 31  1  0
  5 32  1  0
  6 33  1  0
  7 34  1  0
  7 35  1  0
  8 36  1  0
  8 37  1  0
 10 38  1  0
 10 39  1  0
 11 40  1  0
 11 41  1  0
 14 42  1  0
 16 43  1  0
 17 44  1  0
 20 45  1  0
 21 46  1  0
 24 47  1  0
 25 48  1  0
M  CHG  1   6   1
M  END
>  <ScrubInfo>  (4) 
{"isomerGroup": 0, "isomerId": 3, "confId": 0, "nr_conformers:": 1, "nr_isomers:": 9}

$$$$
_i4
     RDKit          3D

 48 51  0  0  0  0  0  0  0  0999 V2000
    5.1276    0.6293    5.5660 N   0  0  0  0  0  0  0  0  0  0  0  0
    4.6547    1.7641    5.0144 C   0  0  0  0  0  0  0  0  0  0  0  0
    5.0277    2.0633    3.7357 N   0  0  0  0  0  0  0  0  0  0  0  0
    6.3965    1.9106    3.2396 C   0  0  0  0  0  0  0  0  0  0  0  0
    6.3850    2.1096    1.7083 C   0  0  0  0  0  0  0  0  0  0  0  0
    5.1770    1.3862    1.1221 N   0  0  0  0  0  4  0  0  0  0  0  0
    5.3732   -0.1037    0.8833 C   0  0  0  0  0  0  0  0  0  0  0  0
    6.1702   -0.3450   -0.4052 C   0  0  0  0  0  0  0  0  0  0  0  0
    5.5532    0.2962   -1.5265 O   0  0  0  0  0  0  0  0  0  0  0  0
    5.4481    1.7132   -1.3450 C   0  0  0  0  0  0  0  0  0  0  0  0
    4.5909    2.0422   -0.1192 C   0  0  0  0  0  0  0  0  0  0  0  0
    3.8505    2.6026    5.5822 N   0  0  0  0  0  0  0  0  0  0  0  0
    3.4266    2.3670    6.8838 C   0  0  0  0  0  0  0  0  0  0  0  0
    2.6722    3.3225    7.3383 N   0  0  0  0  0  0  0  0  0  0  0  0
    2.1371    3.2988    8.6276 C   0  0  0  0  0  0  0  0  0  0  0  0
    0.8619    2.7701    8.8512 C   0  0  0  0  0  0  0  0  0  0  0  0
    0.3091    2.7745   10.1343 C   0  0  0  0  0  0  0  0  0  0  0  0
    1.0282    3.3265   11.1928 C   0  0  0  0  0  0  0  0  0  0  0  0
    0.3536    3.3268   12.7752 Cl  0  0  0  0  0  0  0  0  0  0  0  0
    2.2872    3.8841   10.9774 C   0  0  0  0  0  0  0  0  0  0  0  0
    2.8355    3.8772    9.6924 C   0  0  0  0  0  0  0  0  0  0  0  0
    3.8656    1.1049    7.5721 C   0  0  0  0  0  0  0  0  0  0  0  0
    3.4407    0.7959    8.8231 N   0  0  0  0  0  0  0  0  0  0  0  0
    3.8971   -0.3738    9.3204 C   0  0  0  0  0  0  0  0  0  0  0  0
    4.7387   -1.2046    8.5987 C   0  0  0  0  0  0  0  0  0  0  0  0
    5.1646   -0.9040    7.3460 N   0  0  0  0  0  0  0  0  0  0  0  0
    4.7147    0.2703    6.8429 C   0  0  0  0  0  0  0  0  0  0  0  0
    5.6889   -0.0636    5.1041 H   0  0  0  0  0  0  0  0  0  0  0  0
    4.6730    3.0153    3.5877 H   0  0  0  0  0  0  0  0  0  0  0  0
    6.7778    0.9092    3.4639 H   0  0  0  0  0  0  0  0  0  0  0  0
    7.0612    2.6411    3.7124 H   0  0  0  0  0  0  0  0  0  0  0  0
    7.2964    1.7451    1.2274 H   0  0  0  0  0  0  0  0  0  0  0  0
    6.2561    3.1741    1.4847 H   0  0  0  0  0  0  0  0  0  0  0  0
    4.4585    1.4637    1.8666 H   0  0  0  0  0  0  0  0  0  0  0  0
    5.8650   -0.5309    1.7616 H   0  0  0  0  0  0  0  0  0  0  0  0
    4.3650   -0.5229    0.7952 H   0  0  0  0  0  0  0  0  0  0  0  0
    6.2063   -1.4184   -0.6168 H   0  0  0  0  0  0  0  0  0  0  0  0
    7.2040    0.0058   -0.3138 H   0  0  0  0  0  0  0  0  0  0  0  0
    6.4523    2.1443   -1.2628 H   0  0  0  0  0  0  0  0  0  0  0  0
    4.9804    2.1279   -2.2434 H   0  0  0  0  0  0  0  0  0  0  0  0
    3.5841    1.6240   -0.2273 H   0  0  0  0  0  0  0  0  0  0  0  0
    4.5150    3.1178    0.0651 H   0  0  0  0  0  0  0  0  0  0  0  0
    0.2999    2.3524    8.0212 H   0  0  0  0  0  0  0  0  0  0  0  0
   -0.6784    2.3527   10.2980 H   0  0  0  0  0  0  0  0  0  0  0  0
    2.8423    4.3281   11.7988 H   0  0  0  0  0  0  0  0  0  0  0  0
    3.8102    4.3229    9.5179 H   0  0  0  0  0  0  0  0  0  0  0  0
    3.5652   -0.6282   10.3218 H   0  0  0  0  0  0  0  0  0  0  0  0
    5.0958   -2.1420    9.0131 H   0  0  0  0  0  0  0  0  0  0  0  0
  1  2  1  0
  2  3  1  0
  3  4  1  0
  4  5  1  0
  5  6  1  0
  6  7  1  0
  7  8  1  0
  8  9  1  0
  9 10  1  0
 10 11  1  0
  2 12  2  0
 12 13  1  0
 13 14  2  3
 14 15  1  0
 15 16  2  0
 16 17  1  0
 17 18  2  0
 18 19  1  0
 18 20  1  0
 20 21  2  0
 13 22  1  0
 22 23  2  0
 23 24  1  0
 24 25  2  0
 25 26  1  0
 26 27  2  0
 27  1  1  0
 11  6  1  0
 21 15  1  0
 27 22  1  0
  1 28  1  0
  3 29  1  0
  4 30  1  0
  4 31  1  0
  5 32  1  0
  5 33  1  0
  6 34  1  0
  7 35  1  0
  7 36  1  0
  8 37  1  0
  8 38  1  0
 10 39  1  0
 10 40  1  0
 11 41  1  0
 11 42  1  0
 16 43  1  0
 17 44  1  0
 20 45  1  0
 21 46  1  0
 24 47  1  0
 25 48  1  0
M  CHG  1   6   1
M  END
>  <ScrubInfo>  (5) 
{"isomerGroup": 0, "isomerId": 4, "confId": 0, "nr_conformers:": 1, "nr_isomers:": 9}

$$$$
_i5
     RDKit          3D

 48 51  0  0  0  0  0  0  0  0999 V2000
    3.1264    5.2878    6.6551 N   0  0  0  0  0  0  0  0  0  0  0  0
    3.4155    6.1794    7.6551 C   0  0  0  0  0  0  0  0  0  0  0  0
    4.3822    7.1005    7.5064 C   0  0  0  0  0  0  0  0  0  0  0  0
    5.1546    7.2274    6.3672 N   0  0  0  0  0  0  0  0  0  0  0  0
    4.8851    6.4054    5.3852 C   0  0  0  0  0  0  0  0  0  0  0  0
    5.7037    6.4704    4.1220 C   0  0  0  0  0  0  0  0  0  0  0  0
    6.7465    7.3710    4.1360 N   0  0  0  0  0  0  0  0  0  0  0  0
    7.6184    7.7633    3.1085 C   0  0  0  0  0  0  0  0  0  0  0  0
    8.7028    8.5961    3.4379 C   0  0  0  0  0  0  0  0  0  0  0  0
    9.6332    8.9984    2.4733 C   0  0  0  0  0  0  0  0  0  0  0  0
    9.4946    8.5647    1.1604 C   0  0  0  0  0  0  0  0  0  0  0  0
   10.6334    9.0514   -0.0313 Cl  0  0  0  0  0  0  0  0  0  0  0  0
    8.4365    7.7333    0.8101 C   0  0  0  0  0  0  0  0  0  0  0  0
    7.5099    7.3324    1.7811 C   0  0  0  0  0  0  0  0  0  0  0  0
    5.3712    5.6672    3.1643 N   0  0  0  0  0  0  0  0  0  0  0  0
    4.2972    4.8411    3.3030 C   0  0  0  0  0  0  0  0  0  0  0  0
    4.0139    4.2009    2.2256 N   0  0  0  0  0  0  0  0  0  0  0  0
    2.9028    3.2548    2.2037 C   0  0  0  0  0  0  0  0  0  0  0  0
    3.4012    1.8473    2.5537 C   0  0  0  0  0  0  0  0  0  0  0  0
    4.1910    1.1977    1.4207 N   0  0  0  0  0  4  0  0  0  0  0  0
    4.5440   -0.2550    1.7251 C   0  0  0  0  0  0  0  0  0  0  0  0
    5.7057   -0.3304    2.7275 C   0  0  0  0  0  0  0  0  0  0  0  0
    6.8518    0.3925    2.2636 O   0  0  0  0  0  0  0  0  0  0  0  0
    6.5599    1.7787    2.0259 C   0  0  0  0  0  0  0  0  0  0  0  0
    5.4633    1.9183    0.9687 C   0  0  0  0  0  0  0  0  0  0  0  0
    3.5651    4.6052    4.4339 N   0  0  0  0  0  0  0  0  0  0  0  0
    3.7969    5.3566    5.4601 C   0  0  0  0  0  0  0  0  0  0  0  0
    2.3421    4.6586    6.7682 H   0  0  0  0  0  0  0  0  0  0  0  0
    2.8180    6.0972    8.5578 H   0  0  0  0  0  0  0  0  0  0  0  0
    4.5971    7.8026    8.3097 H   0  0  0  0  0  0  0  0  0  0  0  0
    6.8291    7.9091    4.9982 H   0  0  0  0  0  0  0  0  0  0  0  0
    8.8403    8.9435    4.4600 H   0  0  0  0  0  0  0  0  0  0  0  0
   10.4597    9.6455    2.7560 H   0  0  0  0  0  0  0  0  0  0  0  0
    8.3218    7.3934   -0.2158 H   0  0  0  0  0  0  0  0  0  0  0  0
    6.6951    6.6905    1.4619 H   0  0  0  0  0  0  0  0  0  0  0  0
    2.4644    3.2570    1.1990 H   0  0  0  0  0  0  0  0  0  0  0  0
    2.0906    3.5445    2.8805 H   0  0  0  0  0  0  0  0  0  0  0  0
    2.5372    1.1957    2.7232 H   0  0  0  0  0  0  0  0  0  0  0  0
    4.0272    1.8480    3.4503 H   0  0  0  0  0  0  0  0  0  0  0  0
    3.5714    1.1977    0.6016 H   0  0  0  0  0  0  0  0  0  0  0  0
    4.8321   -0.6983    0.7656 H   0  0  0  0  0  0  0  0  0  0  0  0
    3.6428   -0.7539    2.0940 H   0  0  0  0  0  0  0  0  0  0  0  0
    5.4170    0.0485    3.7138 H   0  0  0  0  0  0  0  0  0  0  0  0
    6.0066   -1.3750    2.8562 H   0  0  0  0  0  0  0  0  0  0  0  0
    7.4802    2.2481    1.6647 H   0  0  0  0  0  0  0  0  0  0  0  0
    6.2906    2.2610    2.9713 H   0  0  0  0  0  0  0  0  0  0  0  0
    5.7679    1.4064    0.0477 H   0  0  0  0  0  0  0  0  0  0  0  0
    5.2284    2.9473    0.7018 H   0  0  0  0  0  0  0  0  0  0  0  0
  1  2  1  0
  2  3  2  0
  3  4  1  0
  4  5  2  0
  5  6  1  0
  6  7  1  0
  7  8  1  0
  8  9  2  0
  9 10  1  0
 10 11  2  0
 11 12  1  0
 11 13  1  0
 13 14  2  0
  6 15  2  0
 15 16  1  0
 16 17  2  3
 17 18  1  0
 18 19  1  0
 19 20  1  0
 20 21  1  0
 21 22  1  0
 22 23  1  0
 23 24  1  0
 24 25  1  0
 16 26  1  0
 26 27  2  0
 27  1  1  0
 27  5  1  0
 14  8  1  0
 25 20  1  0
  1 28  1  0
  2 29  1  0
  3 30  1  0
  7 31  1  0
  9 32  1  0
 10 33  1  0
 13 34  1  0
 14 35  1  0
 18 36  1  0
 18 37  1  0
 19 38  1  0
 19 39  1  0
 20 40  1  0
 21 41  1  0
 21 42  1  0
 22 43  1  0
 22 44  1  0
 24 45  1  0
 24 46  1  0
 25 47  1  0
 25 48  1  0
M  CHG  1  20   1
M  END
>  <ScrubInfo>  (6) 
{"isomerGroup": 0, "isomerId": 5, "confId": 0, "nr_conformers:": 1, "nr_isomers:": 9}

$$$$
_i6
     RDKit          3D

 48 51  0  0  0  0  0  0  0  0999 V2000
    3.1163    5.6053    4.8388 N   0  0  0  0  0  0  0  0  0  0  0  0
    2.7411    6.3729    5.9101 C   0  0  0  0  0  0  0  0  0  0  0  0
    3.4901    7.4118    6.3124 C   0  0  0  0  0  0  0  0  0  0  0  0
    4.6666    7.7893    5.6996 N   0  0  0  0  0  0  0  0  0  0  0  0
    5.0555    7.0834    4.6703 C   0  0  0  0  0  0  0  0  0  0  0  0
    6.3049    7.3736    3.9001 C   0  0  0  0  0  0  0  0  0  0  0  0
    7.0493    8.3720    4.2664 N   0  0  0  0  0  0  0  0  0  0  0  0
    8.2183    8.6499    3.5484 C   0  0  0  0  0  0  0  0  0  0  0  0
    8.1930    9.5575    2.4849 C   0  0  0  0  0  0  0  0  0  0  0  0
    9.3609    9.8504    1.7762 C   0  0  0  0  0  0  0  0  0  0  0  0
   10.5603    9.2424    2.1423 C   0  0  0  0  0  0  0  0  0  0  0  0
   11.9976    9.5915    1.2643 Cl  0  0  0  0  0  0  0  0  0  0  0  0
   10.6035    8.3544    3.2155 C   0  0  0  0  0  0  0  0  0  0  0  0
    9.4327    8.0651    3.9209 C   0  0  0  0  0  0  0  0  0  0  0  0
    6.6309    6.5825    2.8297 N   0  0  0  0  0  0  0  0  0  0  0  0
    5.8616    5.5947    2.5030 C   0  0  0  0  0  0  0  0  0  0  0  0
    6.2771    4.8699    1.4247 N   0  0  0  0  0  0  0  0  0  0  0  0
    5.4219    4.0105    0.6420 C   0  0  0  0  0  0  0  0  0  0  0  0
    5.2532    2.6379    1.3245 C   0  0  0  0  0  0  0  0  0  0  0  0
    4.3169    1.7166    0.5539 N   0  0  0  0  0  4  0  0  0  0  0  0
    3.8147    0.5462    1.4049 C   0  0  0  0  0  0  0  0  0  0  0  0
    4.9028   -0.5226    1.5525 C   0  0  0  0  0  0  0  0  0  0  0  0
    5.3360   -0.9861    0.2694 O   0  0  0  0  0  0  0  0  0  0  0  0
    5.8974    0.0677   -0.5196 C   0  0  0  0  0  0  0  0  0  0  0  0
    4.8688    1.1783   -0.7655 C   0  0  0  0  0  0  0  0  0  0  0  0
    4.6991    5.2281    3.1274 N   0  0  0  0  0  0  0  0  0  0  0  0
    4.2713    5.8969    4.1535 C   0  0  0  0  0  0  0  0  0  0  0  0
    2.5191    4.8452    4.5491 H   0  0  0  0  0  0  0  0  0  0  0  0
    1.8161    6.0939    6.4044 H   0  0  0  0  0  0  0  0  0  0  0  0
    3.1853    8.0163    7.1640 H   0  0  0  0  0  0  0  0  0  0  0  0
    7.2591   10.0420    2.2142 H   0  0  0  0  0  0  0  0  0  0  0  0
    9.3288   10.5569    0.9515 H   0  0  0  0  0  0  0  0  0  0  0  0
   11.5409    7.8932    3.5136 H   0  0  0  0  0  0  0  0  0  0  0  0
    9.4646    7.3862    4.7684 H   0  0  0  0  0  0  0  0  0  0  0  0
    7.0196    5.3579    0.9264 H   0  0  0  0  0  0  0  0  0  0  0  0
    5.8847    3.8796   -0.3411 H   0  0  0  0  0  0  0  0  0  0  0  0
    4.4472    4.4832    0.4735 H   0  0  0  0  0  0  0  0  0  0  0  0
    4.8145    2.7596    2.3196 H   0  0  0  0  0  0  0  0  0  0  0  0
    6.2162    2.1301    1.4371 H   0  0  0  0  0  0  0  0  0  0  0  0
    3.4790    2.2686    0.3265 H   0  0  0  0  0  0  0  0  0  0  0  0
    2.9495    0.1439    0.8663 H   0  0  0  0  0  0  0  0  0  0  0  0
    3.4833    0.9440    2.3686 H   0  0  0  0  0  0  0  0  0  0  0  0
    4.4994   -1.3831    2.0953 H   0  0  0  0  0  0  0  0  0  0  0  0
    5.7653   -0.1508    2.1167 H   0  0  0  0  0  0  0  0  0  0  0  0
    6.2028   -0.3649   -1.4775 H   0  0  0  0  0  0  0  0  0  0  0  0
    6.7999    0.4484   -0.0294 H   0  0  0  0  0  0  0  0  0  0  0  0
    5.2846    2.0122   -1.3350 H   0  0  0  0  0  0  0  0  0  0  0  0
    4.0002    0.7811   -1.3023 H   0  0  0  0  0  0  0  0  0  0  0  0
  1  2  1  0
  2  3  2  0
  3  4  1  0
  4  5  2  0
  5  6  1  0
  6  7  2  3
  7  8  1  0
  8  9  2  0
  9 10  1  0
 10 11  2  0
 11 12  1  0
 11 13  1  0
 13 14  2  0
  6 15  1  0
 15 16  2  0
 16 17  1  0
 17 18  1  0
 18 19  1  0
 19 20  1  0
 20 21  1  0
 21 22  1  0
 22 23  1  0
 23 24  1  0
 24 25  1  0
 16 26  1  0
 26 27  2  0
 27  1  1  0
 27  5  1  0
 14  8  1  0
 25 20  1  0
  1 28  1  0
  2 29  1  0
  3 30  1  0
  9 31  1  0
 10 32  1  0
 13 33  1  0
 14 34  1  0
 17 35  1  0
 18 36  1  0
 18 37  1  0
 19 38  1  0
 19 39  1  0
 20 40  1  0
 21 41  1  0
 21 42  1  0
 22 43  1  0
 22 44  1  0
 24 45  1  0
 24 46  1  0
 25 47  1  0
 25 48  1  0
M  CHG  1  20   1
M  END
>  <ScrubInfo>  (7) 
{"isomerGroup": 0, "isomerId": 6, "confId": 0, "nr_conformers:": 1, "nr_isomers:": 9}

$$$$
_i7
     RDKit          3D

 48 51  0  0  0  0  0  0  0  0999 V2000
    4.3162   -1.0707    5.4956 N   0  0  0  0  0  0  0  0  0  0  0  0
    3.4466   -0.5228    4.5964 C   0  0  0  0  0  0  0  0  0  0  0  0
    3.4628   -0.6339    3.3075 N   0  0  0  0  0  0  0  0  0  0  0  0
    4.5103   -1.4537    2.6986 C   0  0  0  0  0  0  0  0  0  0  0  0
    4.2345   -1.6094    1.1976 C   0  0  0  0  0  0  0  0  0  0  0  0
    4.4528   -0.3726    0.3478 N   0  0  0  0  0  4  0  0  0  0  0  0
    3.6246    0.8593    0.6984 C   0  0  0  0  0  0  0  0  0  0  0  0
    4.3872    1.8529    1.5822 C   0  0  0  0  0  0  0  0  0  0  0  0
    5.6634    2.1715    1.0160 O   0  0  0  0  0  0  0  0  0  0  0  0
    6.4925    1.0095    0.9520 C   0  0  0  0  0  0  0  0  0  0  0  0
    5.8943   -0.0316    0.0050 C   0  0  0  0  0  0  0  0  0  0  0  0
    2.4684    0.2298    5.1797 N   0  0  0  0  0  0  0  0  0  0  0  0
    2.2366    0.5078    6.5091 C   0  0  0  0  0  0  0  0  0  0  0  0
    1.2031    1.2705    6.7613 N   0  0  0  0  0  0  0  0  0  0  0  0
    0.8520    1.6286    8.0661 C   0  0  0  0  0  0  0  0  0  0  0  0
   -0.0574    0.8509    8.7897 C   0  0  0  0  0  0  0  0  0  0  0  0
   -0.4375    1.2251   10.0810 C   0  0  0  0  0  0  0  0  0  0  0  0
    0.0813    2.3905   10.6420 C   0  0  0  0  0  0  0  0  0  0  0  0
   -0.3796    2.8506   12.2341 Cl  0  0  0  0  0  0  0  0  0  0  0  0
    0.9665    3.1890    9.9201 C   0  0  0  0  0  0  0  0  0  0  0  0
    1.3436    2.8105    8.6292 C   0  0  0  0  0  0  0  0  0  0  0  0
    3.2128   -0.1123    7.4625 C   0  0  0  0  0  0  0  0  0  0  0  0
    3.1062    0.0798    8.7981 N   0  0  0  0  0  0  0  0  0  0  0  0
    4.0481   -0.5355    9.5447 C   0  0  0  0  0  0  0  0  0  0  0  0
    5.0523   -1.3060    8.9805 C   0  0  0  0  0  0  0  0  0  0  0  0
    5.1640   -1.4990    7.6414 N   0  0  0  0  0  0  0  0  0  0  0  0
    4.2252   -0.8902    6.8791 C   0  0  0  0  0  0  0  0  0  0  0  0
    5.0921   -1.6590    5.2363 H   0  0  0  0  0  0  0  0  0  0  0  0
    4.4968   -2.4577    3.1403 H   0  0  0  0  0  0  0  0  0  0  0  0
    5.4995   -1.0218    2.8709 H   0  0  0  0  0  0  0  0  0  0  0  0
    4.8752   -2.3904    0.7736 H   0  0  0  0  0  0  0  0  0  0  0  0
    3.1926   -1.9079    1.0305 H   0  0  0  0  0  0  0  0  0  0  0  0
    4.0560   -0.6632   -0.5544 H   0  0  0  0  0  0  0  0  0  0  0  0
    3.4159    1.3347   -0.2676 H   0  0  0  0  0  0  0  0  0  0  0  0
    2.6730    0.5350    1.1284 H   0  0  0  0  0  0  0  0  0  0  0  0
    4.5362    1.4950    2.6031 H   0  0  0  0  0  0  0  0  0  0  0  0
    3.8169    2.7850    1.6502 H   0  0  0  0  0  0  0  0  0  0  0  0
    7.4705    1.3236    0.5730 H   0  0  0  0  0  0  0  0  0  0  0  0
    6.6503    0.6125    1.9592 H   0  0  0  0  0  0  0  0  0  0  0  0
    5.8548    0.3792   -1.0104 H   0  0  0  0  0  0  0  0  0  0  0  0
    6.4754   -0.9583   -0.0132 H   0  0  0  0  0  0  0  0  0  0  0  0
    1.7815    0.6391    4.5601 H   0  0  0  0  0  0  0  0  0  0  0  0
   -0.4672   -0.0518    8.3467 H   0  0  0  0  0  0  0  0  0  0  0  0
   -1.1368    0.6081   10.6381 H   0  0  0  0  0  0  0  0  0  0  0  0
    1.3622    4.1039   10.3520 H   0  0  0  0  0  0  0  0  0  0  0  0
    2.0259    3.4355    8.0611 H   0  0  0  0  0  0  0  0  0  0  0  0
    3.9747   -0.3923   10.6179 H   0  0  0  0  0  0  0  0  0  0  0  0
    5.8013   -1.7935    9.5965 H   0  0  0  0  0  0  0  0  0  0  0  0
  1  2  1  0
  2  3  2  3
  3  4  1  0
  4  5  1  0
  5  6  1  0
  6  7  1  0
  7  8  1  0
  8  9  1  0
  9 10  1  0
 10 11  1  0
  2 12  1  0
 12 13  1  0
 13 14  2  3
 14 15  1  0
 15 16  2  0
 16 17  1  0
 17 18  2  0
 18 19  1  0
 18 20  1  0
 20 21  2  0
 13 22  1  0
 22 23  2  0
 23 24  1  0
 24 25  2  0
 25 26  1  0
 26 27  2  0
 27  1  1  0
 11  6  1  0
 21 15  1  0
 27 22  1  0
  1 28  1  0
  4 29  1  0
  4 30  1  0
  5 31  1  0
  5 32  1  0
  6 33  1  0
  7 34  1  0
  7 35  1  0
  8 36  1  0
  8 37  1  0
 10 38  1  0
 10 39  1  0
 11 40  1  0
 11 41  1  0
 12 42  1  0
 16 43  1  0
 17 44  1  0
 20 45  1  0
 21 46  1  0
 24 47  1  0
 25 48  1  0
M  CHG  1   6   1
M  END
>  <ScrubInfo>  (8) 
{"isomerGroup": 0, "isomerId": 7, "confId": 0, "nr_conformers:": 1, "nr_isomers:": 9}

$$$$
_i8
     RDKit          3D

 48 51  0  0  0  0  0  0  0  0999 V2000
    2.5764    6.3305    3.7000 N   0  0  0  0  0  0  0  0  0  0  0  0
    2.0895    7.1721    4.6638 C   0  0  0  0  0  0  0  0  0  0  0  0
    2.8607    8.1265    5.2067 C   0  0  0  0  0  0  0  0  0  0  0  0
    4.1736    8.3469    4.8515 N   0  0  0  0  0  0  0  0  0  0  0  0
    4.6850    7.5834    3.9228 C   0  0  0  0  0  0  0  0  0  0  0  0
    6.1172    7.7609    3.4636 C   0  0  0  0  0  0  0  0  0  0  0  0
    6.8432    8.6812    4.0162 N   0  0  0  0  0  0  0  0  0  0  0  0
    8.1647    8.8495    3.5924 C   0  0  0  0  0  0  0  0  0  0  0  0
    8.4621    9.7108    2.5323 C   0  0  0  0  0  0  0  0  0  0  0  0
    9.7818    9.8742    2.1038 C   0  0  0  0  0  0  0  0  0  0  0  0
   10.8071    9.1830    2.7471 C   0  0  0  0  0  0  0  0  0  0  0  0
   12.4311    9.3743    2.2160 Cl  0  0  0  0  0  0  0  0  0  0  0  0
   10.5242    8.3386    3.8193 C   0  0  0  0  0  0  0  0  0  0  0  0
    9.2029    8.1779    4.2440 C   0  0  0  0  0  0  0  0  0  0  0  0
    6.4530    6.8756    2.4785 N   0  0  0  0  0  0  0  0  0  0  0  0
    5.6659    5.9259    1.9111 C   0  0  0  0  0  0  0  0  0  0  0  0
    6.1646    5.1947    0.9703 N   0  0  0  0  0  0  0  0  0  0  0  0
    5.3209    4.1975    0.3130 C   0  0  0  0  0  0  0  0  0  0  0  0
    5.3727    2.8706    1.0811 C   0  0  0  0  0  0  0  0  0  0  0  0
    4.5123    1.8064    0.4237 N   0  0  0  0  0  4  0  0  0  0  0  0
    4.1737    0.6532    1.3672 C   0  0  0  0  0  0  0  0  0  0  0  0
    5.3762   -0.2823    1.5312 C   0  0  0  0  0  0  0  0  0  0  0  0
    5.8057   -0.7856    0.2615 O   0  0  0  0  0  0  0  0  0  0  0  0
    6.2174    0.2665   -0.6185 C   0  0  0  0  0  0  0  0  0  0  0  0
    5.0666    1.2447   -0.8843 C   0  0  0  0  0  0  0  0  0  0  0  0
    4.3724    5.7046    2.3157 N   0  0  0  0  0  0  0  0  0  0  0  0
    3.8669    6.4651    3.2470 C   0  0  0  0  0  0  0  0  0  0  0  0
    1.9473    5.6706    3.2657 H   0  0  0  0  0  0  0  0  0  0  0  0
    1.0547    7.0235    4.9552 H   0  0  0  0  0  0  0  0  0  0  0  0
    2.4610    8.7890    5.9716 H   0  0  0  0  0  0  0  0  0  0  0  0
    7.6641   10.2686    2.0483 H   0  0  0  0  0  0  0  0  0  0  0  0
   10.0034   10.5495    1.2814 H   0  0  0  0  0  0  0  0  0  0  0  0
   11.3255    7.8164    4.3358 H   0  0  0  0  0  0  0  0  0  0  0  0
    8.9828    7.5399    5.0961 H   0  0  0  0  0  0  0  0  0  0  0  0
    7.3827    6.9488    2.0881 H   0  0  0  0  0  0  0  0  0  0  0  0
    5.7178    4.0629   -0.6982 H   0  0  0  0  0  0  0  0  0  0  0  0
    4.2874    4.5402    0.1807 H   0  0  0  0  0  0  0  0  0  0  0  0
    4.9831    3.0109    2.0950 H   0  0  0  0  0  0  0  0  0  0  0  0
    6.3958    2.4900    1.1575 H   0  0  0  0  0  0  0  0  0  0  0  0
    3.6163    2.2575    0.1980 H   0  0  0  0  0  0  0  0  0  0  0  0
    3.3364    0.1259    0.8968 H   0  0  0  0  0  0  0  0  0  0  0  0
    3.8400    1.0779    2.3186 H   0  0  0  0  0  0  0  0  0  0  0  0
    5.0907   -1.1410    2.1468 H   0  0  0  0  0  0  0  0  0  0  0  0
    6.2153    0.2166    2.0287 H   0  0  0  0  0  0  0  0  0  0  0  0
    6.5278   -0.1958   -1.5609 H   0  0  0  0  0  0  0  0  0  0  0  0
    7.0936    0.7708   -0.1971 H   0  0  0  0  0  0  0  0  0  0  0  0
    5.3679    2.0769   -1.5240 H   0  0  0  0  0  0  0  0  0  0  0  0
    4.2255    0.7236   -1.3550 H   0  0  0  0  0  0  0  0  0  0  0  0
  1  2  1  0
  2  3  2  0
  3  4  1  0
  4  5  2  0
  5  6  1  0
  6  7  2  3
  7  8  1  0
  8  9  2  0
  9 10  1  0
 10 11  2  0
 11 12  1  0
 11 13  1  0
 13 14  2  0
  6 15  1  0
 15 16  1  0
 16 17  2  3
 17 18  1  0
 18 19  1  0
 19 20  1  0
 20 21  1  0
 21 22  1  0
 22 23  1  0
 23 24  1  0
 24 25  1  0
 16 26  1  0
 26 27  2  0
 27  1  1  0
 27  5  1  0
 14  8  1  0
 25 20  1  0
  1 28  1  0
  2 29  1  0
  3 30  1  0
  9 31  1  0
 10 32  1  0
 13 33  1  0
 14 34  1  0
 15 35  1  0
 18 36  1  0
 18 37  1  0
 19 38  1  0
 19 39  1  0
 20 40  1  0
 21 41  1  0
 21 42  1  0
 22 43  1  0
 22 44  1  0
 24 45  1  0
 24 46  1  0
 25 47  1  0
 25 48  1  0
M  CHG  1  20   1
M  END
>  <ScrubInfo>  (9) 
{"isomerGroup": 0, "isomerId": 8, "confId": 0, "nr_conformers:": 1, "nr_isomers:": 9}

$$$$
