REMARK SMILES Clc1ccc(Nc2nc(NCC[NH+]3CCOCC3)nc3nccnc23)cc1
REMARK SMILES IDX 10 1 11 3 12 4 13 5 14 6 18 7 15 8 17 9 16 10 9 12 8 13
REMARK SMILES IDX 19 14 7 15 20 16 25 17 21 18 24 19 22 20 23 21 6 22 5 24
REMARK SMILES IDX 4 25 26 26 3 27 27 28 2 29 1 30
REMARK H PARENT 10 2 13 11 6 23
ROOT
ATOM      1  N   UNL     1      -4.494  -1.939  -3.955  1.00  0.00    -0.348 N 
ATOM      2  H   UNL     1      -5.253  -2.112  -4.617  1.00  0.00     0.163 HD
ENDROOT
BRANCH   1   3
ATOM      3  C   UNL     1      -4.475  -2.856  -2.822  1.00  0.00     0.177 C 
BRANCH   3   4
ATOM      4  C   UNL     1      -3.669  -2.351  -1.608  1.00  0.00     0.283 C 
BRANCH   4   5
ATOM      5  N   UNL     1      -4.127  -1.039  -0.991  1.00  0.00    -0.330 N 
ATOM      6  C   UNL     1      -5.507  -1.030  -0.363  1.00  0.00     0.291 C 
ATOM      7  C   UNL     1      -3.799   0.232  -1.770  1.00  0.00     0.291 C 
ATOM      8  C   UNL     1      -6.560  -0.415  -1.283  1.00  0.00     0.221 C 
ATOM      9  C   UNL     1      -4.997   0.837  -2.510  1.00  0.00     0.221 C 
ATOM     10  O   UNL     1      -6.160   0.898  -1.679  1.00  0.00    -0.370 OA
ATOM     11  H   UNL     1      -3.496  -0.965  -0.183  1.00  0.00     0.348 HD
ENDBRANCH   4   5
ENDBRANCH   3   4
ENDBRANCH   1   3
BRANCH   1  12
ATOM     12  C   UNL     1      -3.355  -1.972  -4.755  1.00  0.00     0.227 A 
ATOM     13  N   UNL     1      -3.562  -1.844  -6.057  1.00  0.00    -0.193 NA
ATOM     14  N   UNL     1      -2.159  -2.087  -4.194  1.00  0.00    -0.191 NA
ATOM     15  C   UNL     1      -2.485  -1.854  -6.871  1.00  0.00     0.164 A 
ATOM     16  C   UNL     1      -1.100  -2.094  -4.995  1.00  0.00     0.185 A 
ATOM     17  C   UNL     1      -1.185  -1.982  -6.389  1.00  0.00     0.150 A 
ATOM     18  N   UNL     1       0.093  -2.219  -4.407  1.00  0.00    -0.233 NA
ATOM     19  N   UNL     1      -0.082  -2.011  -7.197  1.00  0.00    -0.247 NA
ATOM     20  C   UNL     1       1.189  -2.240  -5.204  1.00  0.00     0.133 A 
ATOM     21  C   UNL     1       1.106  -2.139  -6.575  1.00  0.00     0.132 A 
BRANCH  15  22
ATOM     22  N   UNL     1      -2.637  -1.688  -8.274  1.00  0.00    -0.338 N 
ATOM     23  H   UNL     1      -1.817  -2.043  -8.764  1.00  0.00     0.168 HD
BRANCH  22  24
ATOM     24  C   UNL     1      -3.767  -1.495  -9.085  1.00  0.00     0.040 A 
ATOM     25  C   UNL     1      -5.001  -1.046  -8.601  1.00  0.00     0.027 A 
ATOM     26  C   UNL     1      -3.647  -1.716 -10.468  1.00  0.00     0.027 A 
ATOM     27  C   UNL     1      -6.090  -0.852  -9.461  1.00  0.00     0.022 A 
ATOM     28  C   UNL     1      -4.730  -1.526 -11.332  1.00  0.00     0.022 A 
ATOM     29  C   UNL     1      -5.950  -1.097 -10.823  1.00  0.00     0.041 A 
ATOM     30  Cl  UNL     1      -7.287  -0.859 -11.877  1.00  0.00    -0.084 Cl
ENDBRANCH  22  24
ENDBRANCH  15  22
ENDBRANCH   1  12
TORSDOF 6
