_i0
     RDKit          3D

 51 54  0  0  0  0  0  0  0  0999 V2000
   -3.4246    0.7806   -4.9373 C   0  0  0  0  0  0  0  0  0  0  0  0
   -2.2402    1.3122   -4.1613 N   0  0  0  0  0  4  0  0  0  0  0  0
   -1.2063    2.0714   -4.9760 C   0  0  0  0  0  0  0  0  0  0  0  0
   -2.6178    2.1278   -2.9375 C   0  0  0  0  0  0  0  0  0  0  0  0
   -3.0895   -0.4848   -5.7585 C   0  0  0  0  0  0  0  0  0  0  0  0
   -2.8892   -1.6606   -4.9096 N   0  0  0  0  0  0  0  0  0  0  0  0
   -1.5601   -1.9377   -4.6188 C   0  0  0  0  0  0  0  0  0  0  0  0
   -0.8393   -1.0132   -3.9871 N   0  0  0  0  0  0  0  0  0  0  0  0
   -1.1065   -3.1249   -4.9890 N   0  0  0  0  0  0  0  0  0  0  0  0
    0.4418   -1.3414   -3.6977 C   0  0  0  0  0  0  0  0  0  0  0  0
    0.1653   -3.4206   -4.7308 C   0  0  0  0  0  0  0  0  0  0  0  0
    1.2502   -0.3653   -3.0418 N   0  0  0  0  0  0  0  0  0  0  0  0
    1.0328   -2.5421   -4.0723 C   0  0  0  0  0  0  0  0  0  0  0  0
    0.6205   -4.6116   -5.1290 N   0  0  0  0  0  0  0  0  0  0  0  0
    0.8175    0.4497   -1.9685 C   0  0  0  0  0  0  0  0  0  0  0  0
    2.3376   -2.8389   -3.8016 N   0  0  0  0  0  0  0  0  0  0  0  0
    1.9128   -4.9207   -4.8670 C   0  0  0  0  0  0  0  0  0  0  0  0
   -0.1453    0.0281   -1.0430 C   0  0  0  0  0  0  0  0  0  0  0  0
    1.4746    1.6639   -1.7438 C   0  0  0  0  0  0  0  0  0  0  0  0
    2.7591   -4.0508   -4.2152 C   0  0  0  0  0  0  0  0  0  0  0  0
   -0.4853    0.8315    0.0504 C   0  0  0  0  0  0  0  0  0  0  0  0
    1.1293    2.4738   -0.6583 C   0  0  0  0  0  0  0  0  0  0  0  0
    0.1353    2.0704    0.2393 C   0  0  0  0  0  0  0  0  0  0  0  0
   -0.1922    2.9164    1.4353 C   0  0  0  0  0  0  0  0  0  0  0  0
   -1.6998    3.4906   -5.2909 C   0  0  0  0  0  0  0  0  0  0  0  0
   -2.0590    4.2035   -4.1016 O   0  0  0  0  0  0  0  0  0  0  0  0
   -3.0797    3.5272   -3.3563 C   0  0  0  0  0  0  0  0  0  0  0  0
   -3.7846    1.5820   -5.5889 H   0  0  0  0  0  0  0  0  0  0  0  0
   -4.2074    0.5437   -4.2081 H   0  0  0  0  0  0  0  0  0  0  0  0
   -1.7409    0.4716   -3.7993 H   0  0  0  0  0  0  0  0  0  0  0  0
   -0.9899    1.5001   -5.8822 H   0  0  0  0  0  0  0  0  0  0  0  0
   -0.3059    2.1125   -4.3551 H   0  0  0  0  0  0  0  0  0  0  0  0
   -3.3820    1.5790   -2.3797 H   0  0  0  0  0  0  0  0  0  0  0  0
   -1.7110    2.2012   -2.3337 H   0  0  0  0  0  0  0  0  0  0  0  0
   -3.9584   -0.6929   -6.3950 H   0  0  0  0  0  0  0  0  0  0  0  0
   -2.2475   -0.3191   -6.4411 H   0  0  0  0  0  0  0  0  0  0  0  0
   -3.2007   -2.5175   -5.3764 H   0  0  0  0  0  0  0  0  0  0  0  0
    2.1217   -0.8349   -2.7625 H   0  0  0  0  0  0  0  0  0  0  0  0
    2.2452   -5.8978   -5.2020 H   0  0  0  0  0  0  0  0  0  0  0  0
   -0.6243   -0.9434   -1.1403 H   0  0  0  0  0  0  0  0  0  0  0  0
    2.2664    1.9894   -2.4156 H   0  0  0  0  0  0  0  0  0  0  0  0
    3.7931   -4.3045   -4.0081 H   0  0  0  0  0  0  0  0  0  0  0  0
   -1.2206    0.4716    0.7680 H   0  0  0  0  0  0  0  0  0  0  0  0
    1.6583    3.4133   -0.5055 H   0  0  0  0  0  0  0  0  0  0  0  0
   -0.1424    3.9807    1.1801 H   0  0  0  0  0  0  0  0  0  0  0  0
    0.5155    2.7097    2.2447 H   0  0  0  0  0  0  0  0  0  0  0  0
   -1.2072    2.7140    1.7935 H   0  0  0  0  0  0  0  0  0  0  0  0
   -0.9002    4.0536   -5.7829 H   0  0  0  0  0  0  0  0  0  0  0  0
   -2.5566    3.4784   -5.9733 H   0  0  0  0  0  0  0  0  0  0  0  0
   -3.2884    4.1268   -2.4645 H   0  0  0  0  0  0  0  0  0  0  0  0
   -3.9980    3.4895   -3.9530 H   0  0  0  0  0  0  0  0  0  0  0  0
  1  2  1  0
  2  3  1  0
  2  4  1  0
  5  1  1  0
  6  5  1  0
  7  6  1  0
  8  7  2  0
  7  9  1  0
 10  8  1  0
  9 11  2  0
 12 10  1  0
 13 10  2  0
 11 14  1  0
 13 11  1  0
 15 12  1  0
 16 13  1  0
 14 17  2  0
 18 15  2  0
 15 19  1  0
 20 16  2  0
 17 20  1  0
 21 18  1  0
 19 22  2  0
 23 21  2  0
 22 23  1  0
 24 23  1  0
  3 25  1  0
 25 26  1  0
 26 27  1  0
 27  4  1  0
  1 28  1  0
  1 29  1  0
  2 30  1  0
  3 31  1  0
  3 32  1  0
  4 33  1  0
  4 34  1  0
  5 35  1  0
  5 36  1  0
  6 37  1  0
 12 38  1  0
 17 39  1  0
 18 40  1  0
 19 41  1  0
 20 42  1  0
 21 43  1  0
 22 44  1  0
 24 45  1  0
 24 46  1  0
 24 47  1  0
 25 48  1  0
 25 49  1  0
 27 50  1  0
 27 51  1  0
M  CHG  1   2   1
M  END
>  <ScrubInfo>  (1) 
{"isomerGroup": 0, "isomerId": 0, "confId": 0, "nr_conformers:": 1, "nr_isomers:": 9}

$$$$
_i1
     RDKit          3D

 51 54  0  0  0  0  0  0  0  0999 V2000
    7.5459    3.9417   -5.6934 N   0  0  0  0  0  0  0  0  0  0  0  0
    8.5185    4.3913   -6.5620 C   0  0  0  0  0  0  0  0  0  0  0  0
    8.3507    5.5675   -7.2802 N   0  0  0  0  0  0  0  0  0  0  0  0
    7.1753    6.0496   -7.8905 C   0  0  0  0  0  0  0  0  0  0  0  0
    7.1231    7.4023   -8.2504 C   0  0  0  0  0  0  0  0  0  0  0  0
    5.9781    7.9502   -8.8364 C   0  0  0  0  0  0  0  0  0  0  0  0
    4.8612    7.1497   -9.0896 C   0  0  0  0  0  0  0  0  0  0  0  0
    3.6244    7.7408   -9.6993 C   0  0  0  0  0  0  0  0  0  0  0  0
    4.9008    5.8009   -8.7245 C   0  0  0  0  0  0  0  0  0  0  0  0
    6.0473    5.2577   -8.1337 C   0  0  0  0  0  0  0  0  0  0  0  0
    9.6816    3.7018   -6.6535 C   0  0  0  0  0  0  0  0  0  0  0  0
   10.7253    4.0936   -7.4649 N   0  0  0  0  0  0  0  0  0  0  0  0
   11.7439    3.2984   -7.4637 C   0  0  0  0  0  0  0  0  0  0  0  0
   11.7945    2.0464   -6.6512 C   0  0  0  0  0  0  0  0  0  0  0  0
   10.8343    1.6737   -5.8749 N   0  0  0  0  0  0  0  0  0  0  0  0
    9.7146    2.4652   -5.7875 C   0  0  0  0  0  0  0  0  0  0  0  0
    8.7974    2.0695   -4.9691 N   0  0  0  0  0  0  0  0  0  0  0  0
    7.6890    2.8603   -4.8765 C   0  0  0  0  0  0  0  0  0  0  0  0
    6.8699    2.4500   -3.9776 N   0  0  0  0  0  0  0  0  0  0  0  0
    5.6162    3.1409   -3.7405 C   0  0  0  0  0  0  0  0  0  0  0  0
    4.9821    2.5688   -2.4612 C   0  0  0  0  0  0  0  0  0  0  0  0
    4.4468    1.1499   -2.6285 N   0  0  0  0  0  4  0  0  0  0  0  0
    5.4745    0.0662   -2.9771 C   0  0  0  0  0  0  0  0  0  0  0  0
    6.3745   -0.2265   -1.7759 C   0  0  0  0  0  0  0  0  0  0  0  0
    5.5832   -0.6631   -0.6580 O   0  0  0  0  0  0  0  0  0  0  0  0
    4.6288    0.3252   -0.2544 C   0  0  0  0  0  0  0  0  0  0  0  0
    3.6696    0.6866   -1.3990 C   0  0  0  0  0  0  0  0  0  0  0  0
    6.7928    4.5987   -5.5585 H   0  0  0  0  0  0  0  0  0  0  0  0
    9.1889    5.8092   -7.8160 H   0  0  0  0  0  0  0  0  0  0  0  0
    7.9773    8.0498   -8.0639 H   0  0  0  0  0  0  0  0  0  0  0  0
    5.9686    9.0067   -9.0974 H   0  0  0  0  0  0  0  0  0  0  0  0
    3.0822    6.9922  -10.2865 H   0  0  0  0  0  0  0  0  0  0  0  0
    2.9644    8.1196   -8.9129 H   0  0  0  0  0  0  0  0  0  0  0  0
    3.8774    8.5634  -10.3764 H   0  0  0  0  0  0  0  0  0  0  0  0
    4.0439    5.1586   -8.9157 H   0  0  0  0  0  0  0  0  0  0  0  0
    6.0542    4.1951   -7.9103 H   0  0  0  0  0  0  0  0  0  0  0  0
   12.6396    3.5031   -8.0704 H   0  0  0  0  0  0  0  0  0  0  0  0
   12.7153    1.4529   -6.7585 H   0  0  0  0  0  0  0  0  0  0  0  0
    5.7875    4.2122   -3.5842 H   0  0  0  0  0  0  0  0  0  0  0  0
    4.9342    3.0138   -4.5887 H   0  0  0  0  0  0  0  0  0  0  0  0
    5.6955    2.5693   -1.6319 H   0  0  0  0  0  0  0  0  0  0  0  0
    4.1185    3.1849   -2.1880 H   0  0  0  0  0  0  0  0  0  0  0  0
    3.7927    1.1730   -3.4184 H   0  0  0  0  0  0  0  0  0  0  0  0
    4.8766   -0.8221   -3.2156 H   0  0  0  0  0  0  0  0  0  0  0  0
    6.0088    0.3400   -3.8844 H   0  0  0  0  0  0  0  0  0  0  0  0
    7.0637   -1.0399   -2.0230 H   0  0  0  0  0  0  0  0  0  0  0  0
    6.9757    0.6402   -1.4822 H   0  0  0  0  0  0  0  0  0  0  0  0
    4.0563   -0.0931    0.5796 H   0  0  0  0  0  0  0  0  0  0  0  0
    5.1598    1.2049    0.1251 H   0  0  0  0  0  0  0  0  0  0  0  0
    2.9697    1.4802   -1.1205 H   0  0  0  0  0  0  0  0  0  0  0  0
    3.1025   -0.1939   -1.7205 H   0  0  0  0  0  0  0  0  0  0  0  0
  1  2  1  0
  2  3  1  0
  3  4  1  0
  4  5  2  0
  5  6  1  0
  6  7  2  0
  7  8  1  0
  7  9  1  0
  9 10  2  0
  2 11  2  0
 11 12  1  0
 12 13  2  0
 13 14  1  0
 14 15  2  0
 15 16  1  0
 16 17  2  0
 17 18  1  0
 18 19  2  3
 19 20  1  0
 20 21  1  0
 21 22  1  0
 22 23  1  0
 23 24  1  0
 24 25  1  0
 25 26  1  0
 26 27  1  0
 18  1  1  0
 27 22  1  0
 10  4  1  0
 16 11  1  0
  1 28  1  0
  3 29  1  0
  5 30  1  0
  6 31  1  0
  8 32  1  0
  8 33  1  0
  8 34  1  0
  9 35  1  0
 10 36  1  0
 13 37  1  0
 14 38  1  0
 20 39  1  0
 20 40  1  0
 21 41  1  0
 21 42  1  0
 22 43  1  0
 23 44  1  0
 23 45  1  0
 24 46  1  0
 24 47  1  0
 26 48  1  0
 26 49  1  0
 27 50  1  0
 27 51  1  0
M  CHG  1  22   1
M  END
>  <ScrubInfo>  (2) 
{"isomerGroup": 0, "isomerId": 1, "confId": 0, "nr_conformers:": 1, "nr_isomers:": 9}

$$$$
_i2
     RDKit          3D

 51 54  0  0  0  0  0  0  0  0999 V2000
   -0.6125    4.8686    0.9334 N   0  0  0  0  0  0  0  0  0  0  0  0
   -1.4335    3.7872    0.9247 C   0  0  0  0  0  0  0  0  0  0  0  0
   -2.4968    3.8593    1.7767 N   0  0  0  0  0  0  0  0  0  0  0  0
   -3.2928    2.6921    2.1707 C   0  0  0  0  0  0  0  0  0  0  0  0
   -4.2020    2.1479    1.0408 C   0  0  0  0  0  0  0  0  0  0  0  0
   -3.4440    1.3508    0.0028 N   0  0  0  0  0  4  0  0  0  0  0  0
   -4.0578    1.3652   -1.3840 C   0  0  0  0  0  0  0  0  0  0  0  0
   -5.2295    0.3812   -1.4493 C   0  0  0  0  0  0  0  0  0  0  0  0
   -4.8080   -0.9441   -1.1027 O   0  0  0  0  0  0  0  0  0  0  0  0
   -4.2693   -1.0061    0.2233 C   0  0  0  0  0  0  0  0  0  0  0  0
   -3.0672   -0.0672    0.3886 C   0  0  0  0  0  0  0  0  0  0  0  0
   -1.2480    2.7656    0.1425 N   0  0  0  0  0  0  0  0  0  0  0  0
   -0.1161    2.8258   -0.7025 C   0  0  0  0  0  0  0  0  0  0  0  0
   -0.0056    1.7368   -1.5002 N   0  0  0  0  0  0  0  0  0  0  0  0
    1.0683    1.7467   -2.3314 C   0  0  0  0  0  0  0  0  0  0  0  0
    1.9798    2.7940   -2.3752 C   0  0  0  0  0  0  0  0  0  0  0  0
    1.8643    3.8890   -1.5915 N   0  0  0  0  0  0  0  0  0  0  0  0
    0.8029    3.8866   -0.7547 C   0  0  0  0  0  0  0  0  0  0  0  0
    0.5158    5.0366    0.1590 C   0  0  0  0  0  0  0  0  0  0  0  0
    1.1667    6.1582    0.3179 N   0  0  0  0  0  0  0  0  0  0  0  0
    2.3260    6.4470   -0.4104 C   0  0  0  0  0  0  0  0  0  0  0  0
    2.2461    7.1528   -1.6126 C   0  0  0  0  0  0  0  0  0  0  0  0
    3.4057    7.4852   -2.3184 C   0  0  0  0  0  0  0  0  0  0  0  0
    4.6648    7.1383   -1.8146 C   0  0  0  0  0  0  0  0  0  0  0  0
    5.9092    7.4688   -2.5844 C   0  0  0  0  0  0  0  0  0  0  0  0
    4.7439    6.4388   -0.6047 C   0  0  0  0  0  0  0  0  0  0  0  0
    3.5818    6.1084    0.0980 C   0  0  0  0  0  0  0  0  0  0  0  0
   -0.8231    5.6744    1.5070 H   0  0  0  0  0  0  0  0  0  0  0  0
   -2.3674    4.5109    2.5484 H   0  0  0  0  0  0  0  0  0  0  0  0
   -2.6395    1.9122    2.5756 H   0  0  0  0  0  0  0  0  0  0  0  0
   -3.9467    3.0115    2.9907 H   0  0  0  0  0  0  0  0  0  0  0  0
   -4.6844    2.9849    0.5243 H   0  0  0  0  0  0  0  0  0  0  0  0
   -4.9776    1.4945    1.4510 H   0  0  0  0  0  0  0  0  0  0  0  0
   -2.5320    1.8446   -0.1097 H   0  0  0  0  0  0  0  0  0  0  0  0
   -3.2587    1.0598   -2.0688 H   0  0  0  0  0  0  0  0  0  0  0  0
   -4.3568    2.3911   -1.6182 H   0  0  0  0  0  0  0  0  0  0  0  0
   -5.6238    0.3456   -2.4696 H   0  0  0  0  0  0  0  0  0  0  0  0
   -6.0481    0.6849   -0.7869 H   0  0  0  0  0  0  0  0  0  0  0  0
   -5.0625   -0.7765    0.9432 H   0  0  0  0  0  0  0  0  0  0  0  0
   -3.9538   -2.0387    0.4029 H   0  0  0  0  0  0  0  0  0  0  0  0
   -2.2592   -0.3571   -0.2923 H   0  0  0  0  0  0  0  0  0  0  0  0
   -2.6874   -0.0597    1.4134 H   0  0  0  0  0  0  0  0  0  0  0  0
    1.1832    0.8787   -2.9732 H   0  0  0  0  0  0  0  0  0  0  0  0
    2.8314    2.7802   -3.0483 H   0  0  0  0  0  0  0  0  0  0  0  0
    1.2764    7.4459   -2.0024 H   0  0  0  0  0  0  0  0  0  0  0  0
    3.3195    8.0246   -3.2586 H   0  0  0  0  0  0  0  0  0  0  0  0
    5.7787    8.3904   -3.1612 H   0  0  0  0  0  0  0  0  0  0  0  0
    6.7565    7.6262   -1.9086 H   0  0  0  0  0  0  0  0  0  0  0  0
    6.1515    6.6523   -3.2716 H   0  0  0  0  0  0  0  0  0  0  0  0
    5.7108    6.1543   -0.1963 H   0  0  0  0  0  0  0  0  0  0  0  0
    3.6568    5.5844    1.0456 H   0  0  0  0  0  0  0  0  0  0  0  0
  1  2  1  0
  2  3  1  0
  3  4  1  0
  4  5  1  0
  5  6  1  0
  6  7  1  0
  7  8  1  0
  8  9  1  0
  9 10  1  0
 10 11  1  0
  2 12  2  0
 12 13  1  0
 13 14  2  0
 14 15  1  0
 15 16  2  0
 16 17  1  0
 17 18  2  0
 18 19  1  0
 19 20  2  3
 20 21  1  0
 21 22  2  0
 22 23  1  0
 23 24  2  0
 24 25  1  0
 24 26  1  0
 26 27  2  0
 19  1  1  0
 27 21  1  0
 11  6  1  0
 18 13  1  0
  1 28  1  0
  3 29  1  0
  4 30  1  0
  4 31  1  0
  5 32  1  0
  5 33  1  0
  6 34  1  0
  7 35  1  0
  7 36  1  0
  8 37  1  0
  8 38  1  0
 10 39  1  0
 10 40  1  0
 11 41  1  0
 11 42  1  0
 15 43  1  0
 16 44  1  0
 22 45  1  0
 23 46  1  0
 25 47  1  0
 25 48  1  0
 25 49  1  0
 26 50  1  0
 27 51  1  0
M  CHG  1   6   1
M  END
>  <ScrubInfo>  (3) 
{"isomerGroup": 0, "isomerId": 2, "confId": 0, "nr_conformers:": 1, "nr_isomers:": 9}

$$$$
_i3
     RDKit          3D

 51 54  0  0  0  0  0  0  0  0999 V2000
   -8.2751    0.0509   -4.5123 N   0  0  0  0  0  0  0  0  0  0  0  0
   -7.0581    0.1296   -5.1135 C   0  0  0  0  0  0  0  0  0  0  0  0
   -5.9155    0.1068   -4.5253 N   0  0  0  0  0  0  0  0  0  0  0  0
   -5.8251   -0.0113   -3.0802 C   0  0  0  0  0  0  0  0  0  0  0  0
   -4.3338   -0.0112   -2.7271 C   0  0  0  0  0  0  0  0  0  0  0  0
   -4.0074   -0.1258   -1.2567 N   0  0  0  0  0  4  0  0  0  0  0  0
   -4.3722    1.0675   -0.3870 C   0  0  0  0  0  0  0  0  0  0  0  0
   -5.7378    0.8980    0.2843 C   0  0  0  0  0  0  0  0  0  0  0  0
   -5.8177   -0.3467    0.9834 O   0  0  0  0  0  0  0  0  0  0  0  0
   -5.6908   -1.4560    0.0901 C   0  0  0  0  0  0  0  0  0  0  0  0
   -4.3216   -1.4588   -0.5952 C   0  0  0  0  0  0  0  0  0  0  0  0
   -6.9356    0.2422   -6.4742 N   0  0  0  0  0  0  0  0  0  0  0  0
   -8.0073    0.2904   -7.2284 C   0  0  0  0  0  0  0  0  0  0  0  0
   -7.8083    0.4096   -8.5905 N   0  0  0  0  0  0  0  0  0  0  0  0
   -8.3343   -0.4634   -9.5751 C   0  0  0  0  0  0  0  0  0  0  0  0
   -8.2446   -0.0717  -10.9180 C   0  0  0  0  0  0  0  0  0  0  0  0
   -8.7254   -0.8921  -11.9427 C   0  0  0  0  0  0  0  0  0  0  0  0
   -9.2938   -2.1336  -11.6458 C   0  0  0  0  0  0  0  0  0  0  0  0
   -9.8433   -3.0007  -12.7394 C   0  0  0  0  0  0  0  0  0  0  0  0
   -9.3944   -2.5273  -10.3080 C   0  0  0  0  0  0  0  0  0  0  0  0
   -8.9128   -1.7033   -9.2843 C   0  0  0  0  0  0  0  0  0  0  0  0
   -9.3808    0.2844   -6.6373 C   0  0  0  0  0  0  0  0  0  0  0  0
  -10.4721    0.4306   -7.4269 N   0  0  0  0  0  0  0  0  0  0  0  0
  -11.6506    0.4203   -6.7677 C   0  0  0  0  0  0  0  0  0  0  0  0
  -11.7270    0.2788   -5.3893 C   0  0  0  0  0  0  0  0  0  0  0  0
  -10.6280    0.1453   -4.6018 N   0  0  0  0  0  0  0  0  0  0  0  0
   -9.4421    0.1565   -5.2530 C   0  0  0  0  0  0  0  0  0  0  0  0
   -8.4111   -0.0099   -3.5204 H   0  0  0  0  0  0  0  0  0  0  0  0
   -6.3257    0.8368   -2.6054 H   0  0  0  0  0  0  0  0  0  0  0  0
   -6.2907   -0.9447   -2.7528 H   0  0  0  0  0  0  0  0  0  0  0  0
   -3.8213   -0.8446   -3.2231 H   0  0  0  0  0  0  0  0  0  0  0  0
   -3.8557    0.9115   -3.0785 H   0  0  0  0  0  0  0  0  0  0  0  0
   -2.9786   -0.1041   -1.2705 H   0  0  0  0  0  0  0  0  0  0  0  0
   -3.5903    1.1102    0.3799 H   0  0  0  0  0  0  0  0  0  0  0  0
   -4.3173    1.9722   -0.9998 H   0  0  0  0  0  0  0  0  0  0  0  0
   -6.5634    0.9651   -0.4300 H   0  0  0  0  0  0  0  0  0  0  0  0
   -5.8820    1.6978    1.0180 H   0  0  0  0  0  0  0  0  0  0  0  0
   -5.8008   -2.3702    0.6824 H   0  0  0  0  0  0  0  0  0  0  0  0
   -6.5153   -1.4377   -0.6283 H   0  0  0  0  0  0  0  0  0  0  0  0
   -4.2327   -2.2482   -1.3476 H   0  0  0  0  0  0  0  0  0  0  0  0
   -3.5362   -1.5953    0.1570 H   0  0  0  0  0  0  0  0  0  0  0  0
   -6.8255    0.5686   -8.8002 H   0  0  0  0  0  0  0  0  0  0  0  0
   -7.8121    0.8921  -11.1768 H   0  0  0  0  0  0  0  0  0  0  0  0
   -8.6552   -0.5517  -12.9736 H   0  0  0  0  0  0  0  0  0  0  0  0
  -10.8936   -2.7529  -12.9212 H   0  0  0  0  0  0  0  0  0  0  0  0
   -9.7704   -4.0600  -12.4717 H   0  0  0  0  0  0  0  0  0  0  0  0
   -9.2805   -2.8614  -13.6684 H   0  0  0  0  0  0  0  0  0  0  0  0
   -9.8477   -3.4824  -10.0517 H   0  0  0  0  0  0  0  0  0  0  0  0
   -8.9931   -2.0588   -8.2624 H   0  0  0  0  0  0  0  0  0  0  0  0
  -12.5402    0.5295   -7.3794 H   0  0  0  0  0  0  0  0  0  0  0  0
  -12.6839    0.2718   -4.8771 H   0  0  0  0  0  0  0  0  0  0  0  0
  1  2  1  0
  2  3  2  3
  3  4  1  0
  4  5  1  0
  5  6  1  0
  6  7  1  0
  7  8  1  0
  8  9  1  0
  9 10  1  0
 10 11  1  0
  2 12  1  0
 12 13  2  0
 13 14  1  0
 14 15  1  0
 15 16  2  0
 16 17  1  0
 17 18  2  0
 18 19  1  0
 18 20  1  0
 20 21  2  0
 13 22  1  0
 22 23  2  0
 23 24  1  0
 24 25  2  0
 25 26  1  0
 26 27  2  0
 27  1  1  0
 11  6  1  0
 21 15  1  0
 27 22  1  0
  1 28  1  0
  4 29  1  0
  4 30  1  0
  5 31  1  0
  5 32  1  0
  6 33  1  0
  7 34  1  0
  7 35  1  0
  8 36  1  0
  8 37  1  0
 10 38  1  0
 10 39  1  0
 11 40  1  0
 11 41  1  0
 14 42  1  0
 16 43  1  0
 17 44  1  0
 19 45  1  0
 19 46  1  0
 19 47  1  0
 20 48  1  0
 21 49  1  0
 24 50  1  0
 25 51  1  0
M  CHG  1   6   1
M  END
>  <ScrubInfo>  (4) 
{"isomerGroup": 0, "isomerId": 3, "confId": 0, "nr_conformers:": 1, "nr_isomers:": 9}

$$$$
_i4
     RDKit          3D

 51 54  0  0  0  0  0  0  0  0999 V2000
   -6.9674   -4.5699   -3.9226 N   0  0  0  0  0  0  0  0  0  0  0  0
   -7.4643   -4.9529   -2.7303 C   0  0  0  0  0  0  0  0  0  0  0  0
   -7.4889   -4.0382   -1.7174 N   0  0  0  0  0  0  0  0  0  0  0  0
   -7.8950   -2.6440   -1.8991 C   0  0  0  0  0  0  0  0  0  0  0  0
   -7.5602   -1.8681   -0.6067 C   0  0  0  0  0  0  0  0  0  0  0  0
   -6.1872   -2.3055   -0.1068 N   0  0  0  0  0  4  0  0  0  0  0  0
   -5.0089   -1.6129   -0.7748 C   0  0  0  0  0  0  0  0  0  0  0  0
   -4.7999   -0.2119   -0.1856 C   0  0  0  0  0  0  0  0  0  0  0  0
   -4.6499   -0.2625    1.2372 O   0  0  0  0  0  0  0  0  0  0  0  0
   -5.7968   -0.8326    1.8789 C   0  0  0  0  0  0  0  0  0  0  0  0
   -6.0263   -2.2710    1.4054 C   0  0  0  0  0  0  0  0  0  0  0  0
   -7.9103   -6.1312   -2.4400 N   0  0  0  0  0  0  0  0  0  0  0  0
   -7.9200   -7.1177   -3.4186 C   0  0  0  0  0  0  0  0  0  0  0  0
   -8.4540   -8.2241   -2.9964 N   0  0  0  0  0  0  0  0  0  0  0  0
   -8.5780   -9.3516   -3.8125 C   0  0  0  0  0  0  0  0  0  0  0  0
   -9.7326   -9.5502   -4.5727 C   0  0  0  0  0  0  0  0  0  0  0  0
   -9.8798  -10.7007   -5.3526 C   0  0  0  0  0  0  0  0  0  0  0  0
   -8.8735  -11.6736   -5.3759 C   0  0  0  0  0  0  0  0  0  0  0  0
   -9.0465  -12.9268   -6.1818 C   0  0  0  0  0  0  0  0  0  0  0  0
   -7.7346  -11.4923   -4.5823 C   0  0  0  0  0  0  0  0  0  0  0  0
   -7.5917  -10.3402   -3.8040 C   0  0  0  0  0  0  0  0  0  0  0  0
   -7.3431   -6.8027   -4.7700 C   0  0  0  0  0  0  0  0  0  0  0  0
   -7.2712   -7.7407   -5.7465 N   0  0  0  0  0  0  0  0  0  0  0  0
   -6.7180   -7.3327   -6.9083 C   0  0  0  0  0  0  0  0  0  0  0  0
   -6.2491   -6.0418   -7.0889 C   0  0  0  0  0  0  0  0  0  0  0  0
   -6.3127   -5.0982   -6.1161 N   0  0  0  0  0  0  0  0  0  0  0  0
   -6.8720   -5.5007   -4.9495 C   0  0  0  0  0  0  0  0  0  0  0  0
   -6.5481   -3.6817   -4.1313 H   0  0  0  0  0  0  0  0  0  0  0  0
   -8.0303   -4.5002   -0.9773 H   0  0  0  0  0  0  0  0  0  0  0  0
   -7.3527   -2.1906   -2.7350 H   0  0  0  0  0  0  0  0  0  0  0  0
   -8.9667   -2.5796   -2.1143 H   0  0  0  0  0  0  0  0  0  0  0  0
   -8.2817   -2.1376    0.1721 H   0  0  0  0  0  0  0  0  0  0  0  0
   -7.5676   -0.7844   -0.7496 H   0  0  0  0  0  0  0  0  0  0  0  0
   -6.1295   -3.3025   -0.3891 H   0  0  0  0  0  0  0  0  0  0  0  0
   -4.1400   -2.2483   -0.5715 H   0  0  0  0  0  0  0  0  0  0  0  0
   -5.1912   -1.5868   -1.8527 H   0  0  0  0  0  0  0  0  0  0  0  0
   -3.8857    0.2256   -0.5990 H   0  0  0  0  0  0  0  0  0  0  0  0
   -5.6275    0.4606   -0.4365 H   0  0  0  0  0  0  0  0  0  0  0  0
   -5.6101   -0.8253    2.9573 H   0  0  0  0  0  0  0  0  0  0  0  0
   -6.6714   -0.2004    1.6878 H   0  0  0  0  0  0  0  0  0  0  0  0
   -6.9137   -2.7257    1.8551 H   0  0  0  0  0  0  0  0  0  0  0  0
   -5.1526   -2.8946    1.6242 H   0  0  0  0  0  0  0  0  0  0  0  0
  -10.5242   -8.8077   -4.5517 H   0  0  0  0  0  0  0  0  0  0  0  0
  -10.7884  -10.8350   -5.9346 H   0  0  0  0  0  0  0  0  0  0  0  0
   -8.0777  -13.3131   -6.5154 H   0  0  0  0  0  0  0  0  0  0  0  0
   -9.5453  -13.6928   -5.5803 H   0  0  0  0  0  0  0  0  0  0  0  0
   -9.6453  -12.7346   -7.0784 H   0  0  0  0  0  0  0  0  0  0  0  0
   -6.9545  -12.2493   -4.5584 H   0  0  0  0  0  0  0  0  0  0  0  0
   -6.7102  -10.2138   -3.1832 H   0  0  0  0  0  0  0  0  0  0  0  0
   -6.6607   -8.0772   -7.6956 H   0  0  0  0  0  0  0  0  0  0  0  0
   -5.8062   -5.7300   -8.0293 H   0  0  0  0  0  0  0  0  0  0  0  0
  1  2  1  0
  2  3  1  0
  3  4  1  0
  4  5  1  0
  5  6  1  0
  6  7  1  0
  7  8  1  0
  8  9  1  0
  9 10  1  0
 10 11  1  0
  2 12  2  0
 12 13  1  0
 13 14  2  3
 14 15  1  0
 15 16  2  0
 16 17  1  0
 17 18  2  0
 18 19  1  0
 18 20  1  0
 20 21  2  0
 13 22  1  0
 22 23  2  0
 23 24  1  0
 24 25  2  0
 25 26  1  0
 26 27  2  0
 27  1  1  0
 11  6  1  0
 21 15  1  0
 27 22  1  0
  1 28  1  0
  3 29  1  0
  4 30  1  0
  4 31  1  0
  5 32  1  0
  5 33  1  0
  6 34  1  0
  7 35  1  0
  7 36  1  0
  8 37  1  0
  8 38  1  0
 10 39  1  0
 10 40  1  0
 11 41  1  0
 11 42  1  0
 16 43  1  0
 17 44  1  0
 19 45  1  0
 19 46  1  0
 19 47  1  0
 20 48  1  0
 21 49  1  0
 24 50  1  0
 25 51  1  0
M  CHG  1   6   1
M  END
>  <ScrubInfo>  (5) 
{"isomerGroup": 0, "isomerId": 4, "confId": 0, "nr_conformers:": 1, "nr_isomers:": 9}

$$$$
_i5
     RDKit          3D

 51 54  0  0  0  0  0  0  0  0999 V2000
    3.1438   -1.5362   -8.4924 N   0  0  0  0  0  0  0  0  0  0  0  0
    2.1903   -2.2761   -9.1438 C   0  0  0  0  0  0  0  0  0  0  0  0
    1.2127   -2.9035   -8.4664 C   0  0  0  0  0  0  0  0  0  0  0  0
    1.0661   -2.8424   -7.0914 N   0  0  0  0  0  0  0  0  0  0  0  0
    1.9906   -2.1815   -6.4462 C   0  0  0  0  0  0  0  0  0  0  0  0
    1.8595   -1.9806   -4.9612 C   0  0  0  0  0  0  0  0  0  0  0  0
    0.6778   -2.3845   -4.3705 N   0  0  0  0  0  0  0  0  0  0  0  0
   -0.0205   -1.5793   -3.4460 C   0  0  0  0  0  0  0  0  0  0  0  0
   -0.1130   -0.1893   -3.5865 C   0  0  0  0  0  0  0  0  0  0  0  0
   -0.8721    0.5684   -2.6894 C   0  0  0  0  0  0  0  0  0  0  0  0
   -1.5561   -0.0521   -1.6393 C   0  0  0  0  0  0  0  0  0  0  0  0
   -2.4055    0.7550   -0.7007 C   0  0  0  0  0  0  0  0  0  0  0  0
   -1.5080   -1.4453   -1.5291 C   0  0  0  0  0  0  0  0  0  0  0  0
   -0.7564   -2.2013   -2.4326 C   0  0  0  0  0  0  0  0  0  0  0  0
    2.8514   -1.4295   -4.3226 N   0  0  0  0  0  0  0  0  0  0  0  0
    3.9923   -1.1687   -5.0397 C   0  0  0  0  0  0  0  0  0  0  0  0
    5.0993   -1.0510   -4.4077 N   0  0  0  0  0  0  0  0  0  0  0  0
    5.2095   -1.3684   -2.9841 C   0  0  0  0  0  0  0  0  0  0  0  0
    4.9229   -0.1416   -2.1127 C   0  0  0  0  0  0  0  0  0  0  0  0
    3.4316    0.1123   -2.0179 N   0  0  0  0  0  4  0  0  0  0  0  0
    2.7392   -0.6147   -0.8753 C   0  0  0  0  0  0  0  0  0  0  0  0
    2.9815    0.1076    0.4569 C   0  0  0  0  0  0  0  0  0  0  0  0
    2.5976    1.4866    0.3852 O   0  0  0  0  0  0  0  0  0  0  0  0
    3.3242    2.1888   -0.6310 C   0  0  0  0  0  0  0  0  0  0  0  0
    3.0567    1.5806   -2.0109 C   0  0  0  0  0  0  0  0  0  0  0  0
    4.0850   -0.9847   -6.3877 N   0  0  0  0  0  0  0  0  0  0  0  0
    3.1665   -1.5151   -7.1224 C   0  0  0  0  0  0  0  0  0  0  0  0
    3.9411   -1.1866   -9.0116 H   0  0  0  0  0  0  0  0  0  0  0  0
    2.2854   -2.3299  -10.2240 H   0  0  0  0  0  0  0  0  0  0  0  0
    0.4689   -3.4913   -9.0011 H   0  0  0  0  0  0  0  0  0  0  0  0
    0.0219   -2.7869   -5.0490 H   0  0  0  0  0  0  0  0  0  0  0  0
    0.3748    0.3205   -4.4134 H   0  0  0  0  0  0  0  0  0  0  0  0
   -0.9495    1.6454   -2.8283 H   0  0  0  0  0  0  0  0  0  0  0  0
   -1.9864    1.7570   -0.5606 H   0  0  0  0  0  0  0  0  0  0  0  0
   -2.4534    0.2823    0.2860 H   0  0  0  0  0  0  0  0  0  0  0  0
   -3.4203    0.8474   -1.0995 H   0  0  0  0  0  0  0  0  0  0  0  0
   -2.0726   -1.9543   -0.7493 H   0  0  0  0  0  0  0  0  0  0  0  0
   -0.7477   -3.2854   -2.3358 H   0  0  0  0  0  0  0  0  0  0  0  0
    4.5934   -2.2291   -2.6979 H   0  0  0  0  0  0  0  0  0  0  0  0
    6.2469   -1.6757   -2.8073 H   0  0  0  0  0  0  0  0  0  0  0  0
    5.3910    0.7484   -2.5470 H   0  0  0  0  0  0  0  0  0  0  0  0
    5.3060   -0.2803   -1.0979 H   0  0  0  0  0  0  0  0  0  0  0  0
    3.0248   -0.2944   -2.8815 H   0  0  0  0  0  0  0  0  0  0  0  0
    3.0949   -1.6488   -0.8601 H   0  0  0  0  0  0  0  0  0  0  0  0
    1.6738   -0.6026   -1.1171 H   0  0  0  0  0  0  0  0  0  0  0  0
    2.3783   -0.3617    1.2406 H   0  0  0  0  0  0  0  0  0  0  0  0
    4.0294    0.0435    0.7695 H   0  0  0  0  0  0  0  0  0  0  0  0
    2.9875    3.2300   -0.6169 H   0  0  0  0  0  0  0  0  0  0  0  0
    4.3922    2.1811   -0.3851 H   0  0  0  0  0  0  0  0  0  0  0  0
    1.9886    1.6191   -2.2450 H   0  0  0  0  0  0  0  0  0  0  0  0
    3.6135    2.0821   -2.8080 H   0  0  0  0  0  0  0  0  0  0  0  0
  1  2  1  0
  2  3  2  0
  3  4  1  0
  4  5  2  0
  5  6  1  0
  6  7  1  0
  7  8  1  0
  8  9  2  0
  9 10  1  0
 10 11  2  0
 11 12  1  0
 11 13  1  0
 13 14  2  0
  6 15  2  0
 15 16  1  0
 16 17  2  3
 17 18  1  0
 18 19  1  0
 19 20  1  0
 20 21  1  0
 21 22  1  0
 22 23  1  0
 23 24  1  0
 24 25  1  0
 16 26  1  0
 26 27  2  0
 27  1  1  0
 27  5  1  0
 14  8  1  0
 25 20  1  0
  1 28  1  0
  2 29  1  0
  3 30  1  0
  7 31  1  0
  9 32  1  0
 10 33  1  0
 12 34  1  0
 12 35  1  0
 12 36  1  0
 13 37  1  0
 14 38  1  0
 18 39  1  0
 18 40  1  0
 19 41  1  0
 19 42  1  0
 20 43  1  0
 21 44  1  0
 21 45  1  0
 22 46  1  0
 22 47  1  0
 24 48  1  0
 24 49  1  0
 25 50  1  0
 25 51  1  0
M  CHG  1  20   1
M  END
>  <ScrubInfo>  (6) 
{"isomerGroup": 0, "isomerId": 5, "confId": 0, "nr_conformers:": 1, "nr_isomers:": 9}

$$$$
_i6
     RDKit          3D

 51 54  0  0  0  0  0  0  0  0999 V2000
   -5.6793   -4.7269   -3.8112 N   0  0  0  0  0  0  0  0  0  0  0  0
   -6.2475   -5.8760   -4.2961 C   0  0  0  0  0  0  0  0  0  0  0  0
   -7.0768   -5.8458   -5.3516 C   0  0  0  0  0  0  0  0  0  0  0  0
   -7.4207   -4.6904   -6.0222 N   0  0  0  0  0  0  0  0  0  0  0  0
   -6.8839   -3.5758   -5.6006 C   0  0  0  0  0  0  0  0  0  0  0  0
   -7.1632   -2.2412   -6.2180 C   0  0  0  0  0  0  0  0  0  0  0  0
   -8.0519   -2.1584   -7.1596 N   0  0  0  0  0  0  0  0  0  0  0  0
   -8.3201   -0.9094   -7.7355 C   0  0  0  0  0  0  0  0  0  0  0  0
   -7.5576   -0.4411   -8.8078 C   0  0  0  0  0  0  0  0  0  0  0  0
   -7.8424    0.7947   -9.3950 C   0  0  0  0  0  0  0  0  0  0  0  0
   -8.8994    1.5785   -8.9174 C   0  0  0  0  0  0  0  0  0  0  0  0
   -9.2375    2.8821   -9.5788 C   0  0  0  0  0  0  0  0  0  0  0  0
   -9.6847    1.0924   -7.8653 C   0  0  0  0  0  0  0  0  0  0  0  0
   -9.3957   -0.1439   -7.2809 C   0  0  0  0  0  0  0  0  0  0  0  0
   -6.4865   -1.1391   -5.7633 N   0  0  0  0  0  0  0  0  0  0  0  0
   -5.6707   -1.2534   -4.7669 C   0  0  0  0  0  0  0  0  0  0  0  0
   -5.0537   -0.0934   -4.3943 N   0  0  0  0  0  0  0  0  0  0  0  0
   -3.8593   -0.0386   -3.5813 C   0  0  0  0  0  0  0  0  0  0  0  0
   -4.1413   -0.3077   -2.0934 C   0  0  0  0  0  0  0  0  0  0  0  0
   -5.0377    0.6974   -1.3846 N   0  0  0  0  0  4  0  0  0  0  0  0
   -6.5240    0.6682   -1.7401 C   0  0  0  0  0  0  0  0  0  0  0  0
   -6.9580    1.7991   -2.6806 C   0  0  0  0  0  0  0  0  0  0  0  0
   -6.4530    3.0659   -2.2489 O   0  0  0  0  0  0  0  0  0  0  0  0
   -5.0251    3.0707   -2.2654 C   0  0  0  0  0  0  0  0  0  0  0  0
   -4.4825    2.1019   -1.2161 C   0  0  0  0  0  0  0  0  0  0  0  0
   -5.3963   -2.3971   -4.0705 N   0  0  0  0  0  0  0  0  0  0  0  0
   -5.9253   -3.5256   -4.4306 C   0  0  0  0  0  0  0  0  0  0  0  0
   -5.0000   -4.7955   -3.0667 H   0  0  0  0  0  0  0  0  0  0  0  0
   -5.9857   -6.7968   -3.7848 H   0  0  0  0  0  0  0  0  0  0  0  0
   -7.5223   -6.7632   -5.7306 H   0  0  0  0  0  0  0  0  0  0  0  0
   -6.7459   -1.0494   -9.1961 H   0  0  0  0  0  0  0  0  0  0  0  0
   -7.2433    1.1329  -10.2374 H   0  0  0  0  0  0  0  0  0  0  0  0
   -9.9438    2.7143  -10.3977 H   0  0  0  0  0  0  0  0  0  0  0  0
   -9.6847    3.5787   -8.8620 H   0  0  0  0  0  0  0  0  0  0  0  0
   -8.3379    3.3613   -9.9791 H   0  0  0  0  0  0  0  0  0  0  0  0
  -10.5365    1.6647   -7.5053 H   0  0  0  0  0  0  0  0  0  0  0  0
  -10.0221   -0.5219   -6.4785 H   0  0  0  0  0  0  0  0  0  0  0  0
   -5.0887    0.5706   -5.1680 H   0  0  0  0  0  0  0  0  0  0  0  0
   -3.1256   -0.7650   -3.9506 H   0  0  0  0  0  0  0  0  0  0  0  0
   -3.3959    0.9466   -3.6937 H   0  0  0  0  0  0  0  0  0  0  0  0
   -4.6004   -1.2871   -1.9294 H   0  0  0  0  0  0  0  0  0  0  0  0
   -3.1951   -0.3016   -1.5398 H   0  0  0  0  0  0  0  0  0  0  0  0
   -5.0386    0.3309   -0.4243 H   0  0  0  0  0  0  0  0  0  0  0  0
   -6.7766   -0.3247   -2.1227 H   0  0  0  0  0  0  0  0  0  0  0  0
   -7.0357    0.8010   -0.7792 H   0  0  0  0  0  0  0  0  0  0  0  0
   -6.6594    1.6338   -3.7170 H   0  0  0  0  0  0  0  0  0  0  0  0
   -8.0512    1.8644   -2.6791 H   0  0  0  0  0  0  0  0  0  0  0  0
   -4.6952    4.0869   -2.0269 H   0  0  0  0  0  0  0  0  0  0  0  0
   -4.6639    2.8381   -3.2723 H   0  0  0  0  0  0  0  0  0  0  0  0
   -3.3899    2.0449   -1.2279 H   0  0  0  0  0  0  0  0  0  0  0  0
   -4.8096    2.4202   -0.2196 H   0  0  0  0  0  0  0  0  0  0  0  0
  1  2  1  0
  2  3  2  0
  3  4  1  0
  4  5  2  0
  5  6  1  0
  6  7  2  3
  7  8  1  0
  8  9  2  0
  9 10  1  0
 10 11  2  0
 11 12  1  0
 11 13  1  0
 13 14  2  0
  6 15  1  0
 15 16  2  0
 16 17  1  0
 17 18  1  0
 18 19  1  0
 19 20  1  0
 20 21  1  0
 21 22  1  0
 22 23  1  0
 23 24  1  0
 24 25  1  0
 16 26  1  0
 26 27  2  0
 27  1  1  0
 27  5  1  0
 14  8  1  0
 25 20  1  0
  1 28  1  0
  2 29  1  0
  3 30  1  0
  9 31  1  0
 10 32  1  0
 12 33  1  0
 12 34  1  0
 12 35  1  0
 13 36  1  0
 14 37  1  0
 17 38  1  0
 18 39  1  0
 18 40  1  0
 19 41  1  0
 19 42  1  0
 20 43  1  0
 21 44  1  0
 21 45  1  0
 22 46  1  0
 22 47  1  0
 24 48  1  0
 24 49  1  0
 25 50  1  0
 25 51  1  0
M  CHG  1  20   1
M  END
>  <ScrubInfo>  (7) 
{"isomerGroup": 0, "isomerId": 6, "confId": 0, "nr_conformers:": 1, "nr_isomers:": 9}

$$$$
_i7
     RDKit          3D

 51 54  0  0  0  0  0  0  0  0999 V2000
   -4.7523    2.9027    5.2395 N   0  0  0  0  0  0  0  0  0  0  0  0
   -4.2266    1.6431    5.1990 C   0  0  0  0  0  0  0  0  0  0  0  0
   -4.2464    0.8113    4.2115 N   0  0  0  0  0  0  0  0  0  0  0  0
   -4.8919    1.2035    2.9653 C   0  0  0  0  0  0  0  0  0  0  0  0
   -4.7686    0.0254    1.9850 C   0  0  0  0  0  0  0  0  0  0  0  0
   -5.2370    0.3867    0.5895 N   0  0  0  0  0  4  0  0  0  0  0  0
   -6.7455    0.5976    0.4913 C   0  0  0  0  0  0  0  0  0  0  0  0
   -7.1295    0.9162   -0.9586 C   0  0  0  0  0  0  0  0  0  0  0  0
   -6.7044   -0.1236   -1.8442 O   0  0  0  0  0  0  0  0  0  0  0  0
   -5.2837   -0.2940   -1.8203 C   0  0  0  0  0  0  0  0  0  0  0  0
   -4.8032   -0.6816   -0.4183 C   0  0  0  0  0  0  0  0  0  0  0  0
   -3.6212    1.2712    6.3641 N   0  0  0  0  0  0  0  0  0  0  0  0
   -3.4670    1.9629    7.5456 C   0  0  0  0  0  0  0  0  0  0  0  0
   -2.8309    1.3331    8.4998 N   0  0  0  0  0  0  0  0  0  0  0  0
   -2.6035    1.9158    9.7510 C   0  0  0  0  0  0  0  0  0  0  0  0
   -3.5112    1.7233   10.7945 C   0  0  0  0  0  0  0  0  0  0  0  0
   -3.2621    2.2617   12.0600 C   0  0  0  0  0  0  0  0  0  0  0  0
   -2.0846    2.9780   12.3051 C   0  0  0  0  0  0  0  0  0  0  0  0
   -1.8292    3.5822   13.6541 C   0  0  0  0  0  0  0  0  0  0  0  0
   -1.1710    3.1623   11.2606 C   0  0  0  0  0  0  0  0  0  0  0  0
   -1.4243    2.6222    9.9967 C   0  0  0  0  0  0  0  0  0  0  0  0
   -4.0587    3.3402    7.5488 C   0  0  0  0  0  0  0  0  0  0  0  0
   -3.9833    4.1347    8.6414 N   0  0  0  0  0  0  0  0  0  0  0  0
   -4.5557    5.3498    8.5128 C   0  0  0  0  0  0  0  0  0  0  0  0
   -5.1770    5.7541    7.3421 C   0  0  0  0  0  0  0  0  0  0  0  0
   -5.2562    4.9626    6.2421 N   0  0  0  0  0  0  0  0  0  0  0  0
   -4.6855    3.7391    6.3574 C   0  0  0  0  0  0  0  0  0  0  0  0
   -5.2325    3.3305    4.4660 H   0  0  0  0  0  0  0  0  0  0  0  0
   -5.9478    1.4345    3.1420 H   0  0  0  0  0  0  0  0  0  0  0  0
   -4.4006    2.0870    2.5410 H   0  0  0  0  0  0  0  0  0  0  0  0
   -3.7164   -0.2698    1.8972 H   0  0  0  0  0  0  0  0  0  0  0  0
   -5.3469   -0.8430    2.3208 H   0  0  0  0  0  0  0  0  0  0  0  0
   -4.7687    1.2604    0.3167 H   0  0  0  0  0  0  0  0  0  0  0  0
   -7.2166   -0.3310    0.8308 H   0  0  0  0  0  0  0  0  0  0  0  0
   -7.0132    1.4266    1.1509 H   0  0  0  0  0  0  0  0  0  0  0  0
   -6.6949    1.8689   -1.2831 H   0  0  0  0  0  0  0  0  0  0  0  0
   -8.2175    1.0006   -1.0418 H   0  0  0  0  0  0  0  0  0  0  0  0
   -5.0312   -1.0878   -2.5301 H   0  0  0  0  0  0  0  0  0  0  0  0
   -4.8018    0.6285   -2.1646 H   0  0  0  0  0  0  0  0  0  0  0  0
   -3.7117   -0.7473   -0.3799 H   0  0  0  0  0  0  0  0  0  0  0  0
   -5.2558   -1.6238   -0.0904 H   0  0  0  0  0  0  0  0  0  0  0  0
   -3.2167    0.3431    6.3819 H   0  0  0  0  0  0  0  0  0  0  0  0
   -4.4180    1.1527   10.6203 H   0  0  0  0  0  0  0  0  0  0  0  0
   -3.9896    2.1108   12.8539 H   0  0  0  0  0  0  0  0  0  0  0  0
   -2.2481    4.5923   13.6966 H   0  0  0  0  0  0  0  0  0  0  0  0
   -0.7552    3.6351   13.8615 H   0  0  0  0  0  0  0  0  0  0  0  0
   -2.2830    2.9768   14.4457 H   0  0  0  0  0  0  0  0  0  0  0  0
   -0.2525    3.7204   11.4252 H   0  0  0  0  0  0  0  0  0  0  0  0
   -0.7001    2.7540    9.1989 H   0  0  0  0  0  0  0  0  0  0  0  0
   -4.5014    5.9956    9.3830 H   0  0  0  0  0  0  0  0  0  0  0  0
   -5.6321    6.7357    7.2572 H   0  0  0  0  0  0  0  0  0  0  0  0
  1  2  1  0
  2  3  2  3
  3  4  1  0
  4  5  1  0
  5  6  1  0
  6  7  1  0
  7  8  1  0
  8  9  1  0
  9 10  1  0
 10 11  1  0
  2 12  1  0
 12 13  1  0
 13 14  2  3
 14 15  1  0
 15 16  2  0
 16 17  1  0
 17 18  2  0
 18 19  1  0
 18 20  1  0
 20 21  2  0
 13 22  1  0
 22 23  2  0
 23 24  1  0
 24 25  2  0
 25 26  1  0
 26 27  2  0
 27  1  1  0
 11  6  1  0
 21 15  1  0
 27 22  1  0
  1 28  1  0
  4 29  1  0
  4 30  1  0
  5 31  1  0
  5 32  1  0
  6 33  1  0
  7 34  1  0
  7 35  1  0
  8 36  1  0
  8 37  1  0
 10 38  1  0
 10 39  1  0
 11 40  1  0
 11 41  1  0
 12 42  1  0
 16 43  1  0
 17 44  1  0
 19 45  1  0
 19 46  1  0
 19 47  1  0
 20 48  1  0
 21 49  1  0
 24 50  1  0
 25 51  1  0
M  CHG  1   6   1
M  END
>  <ScrubInfo>  (8) 
{"isomerGroup": 0, "isomerId": 7, "confId": 0, "nr_conformers:": 1, "nr_isomers:": 9}

$$$$
_i8
     RDKit          3D

 51 54  0  0  0  0  0  0  0  0999 V2000
   -9.1867   -0.7399   -8.0127 N   0  0  0  0  0  0  0  0  0  0  0  0
   -9.5592   -0.4414   -9.2935 C   0  0  0  0  0  0  0  0  0  0  0  0
   -9.1831    0.7099   -9.8705 C   0  0  0  0  0  0  0  0  0  0  0  0
   -8.4121    1.6662   -9.2457 N   0  0  0  0  0  0  0  0  0  0  0  0
   -8.0265    1.4356   -8.0202 C   0  0  0  0  0  0  0  0  0  0  0  0
   -7.1767    2.4140   -7.2341 C   0  0  0  0  0  0  0  0  0  0  0  0
   -6.7085    3.5740   -7.6003 N   0  0  0  0  0  0  0  0  0  0  0  0
   -6.9597    4.0937   -8.8744 C   0  0  0  0  0  0  0  0  0  0  0  0
   -6.0650    3.8593   -9.9207 C   0  0  0  0  0  0  0  0  0  0  0  0
   -6.2865    4.4198  -11.1817 C   0  0  0  0  0  0  0  0  0  0  0  0
   -7.3940    5.2461  -11.4047 C   0  0  0  0  0  0  0  0  0  0  0  0
   -7.6531    5.8191  -12.7667 C   0  0  0  0  0  0  0  0  0  0  0  0
   -8.2849    5.4873  -10.3525 C   0  0  0  0  0  0  0  0  0  0  0  0
   -8.0602    4.9251   -9.0928 C   0  0  0  0  0  0  0  0  0  0  0  0
   -6.8905    1.9714   -5.9750 N   0  0  0  0  0  0  0  0  0  0  0  0
   -7.2735    0.8038   -5.3913 C   0  0  0  0  0  0  0  0  0  0  0  0
   -6.9896    0.4131   -4.2005 N   0  0  0  0  0  0  0  0  0  0  0  0
   -6.1840    1.2330   -3.3131 C   0  0  0  0  0  0  0  0  0  0  0  0
   -6.0334    0.4614   -1.9901 C   0  0  0  0  0  0  0  0  0  0  0  0
   -5.0898    1.1549   -1.0261 N   0  0  0  0  0  4  0  0  0  0  0  0
   -4.5996    0.2215    0.0843 C   0  0  0  0  0  0  0  0  0  0  0  0
   -5.6895    0.0175    1.1420 C   0  0  0  0  0  0  0  0  0  0  0  0
   -6.1074    1.2729    1.6897 O   0  0  0  0  0  0  0  0  0  0  0  0
   -6.6598    2.1341    0.6885 C   0  0  0  0  0  0  0  0  0  0  0  0
   -5.6279    2.4405   -0.4038 C   0  0  0  0  0  0  0  0  0  0  0  0
   -8.0404   -0.1064   -6.0670 N   0  0  0  0  0  0  0  0  0  0  0  0
   -8.4177    0.1353   -7.2875 C   0  0  0  0  0  0  0  0  0  0  0  0
   -9.4804   -1.6128   -7.5938 H   0  0  0  0  0  0  0  0  0  0  0  0
  -10.1669   -1.1824   -9.8022 H   0  0  0  0  0  0  0  0  0  0  0  0
   -9.4846    0.9383  -10.8904 H   0  0  0  0  0  0  0  0  0  0  0  0
   -5.1938    3.2326   -9.7586 H   0  0  0  0  0  0  0  0  0  0  0  0
   -5.5873    4.2091  -11.9876 H   0  0  0  0  0  0  0  0  0  0  0  0
   -8.2658    5.1273  -13.3528 H   0  0  0  0  0  0  0  0  0  0  0  0
   -8.1741    6.7795  -12.6938 H   0  0  0  0  0  0  0  0  0  0  0  0
   -6.7137    5.9993  -13.2998 H   0  0  0  0  0  0  0  0  0  0  0  0
   -9.1584    6.1168  -10.5058 H   0  0  0  0  0  0  0  0  0  0  0  0
   -8.7515    5.1332   -8.2823 H   0  0  0  0  0  0  0  0  0  0  0  0
   -6.3257    2.6208   -5.4540 H   0  0  0  0  0  0  0  0  0  0  0  0
   -5.1938    1.4144   -3.7470 H   0  0  0  0  0  0  0  0  0  0  0  0
   -6.6753    2.1950   -3.1360 H   0  0  0  0  0  0  0  0  0  0  0  0
   -6.9991    0.3225   -1.4943 H   0  0  0  0  0  0  0  0  0  0  0  0
   -5.6060   -0.5271   -2.1948 H   0  0  0  0  0  0  0  0  0  0  0  0
   -4.2495    1.4057   -1.5626 H   0  0  0  0  0  0  0  0  0  0  0  0
   -4.2808   -0.7181   -0.3767 H   0  0  0  0  0  0  0  0  0  0  0  0
   -3.7274    0.7206    0.5210 H   0  0  0  0  0  0  0  0  0  0  0  0
   -6.5588   -0.5107    0.7350 H   0  0  0  0  0  0  0  0  0  0  0  0
   -5.2926   -0.5853    1.9648 H   0  0  0  0  0  0  0  0  0  0  0  0
   -6.9551    3.0653    1.1822 H   0  0  0  0  0  0  0  0  0  0  0  0
   -7.5676    1.6794    0.2774 H   0  0  0  0  0  0  0  0  0  0  0  0
   -6.0373    3.0675   -1.1990 H   0  0  0  0  0  0  0  0  0  0  0  0
   -4.7543    2.9417    0.0277 H   0  0  0  0  0  0  0  0  0  0  0  0
  1  2  1  0
  2  3  2  0
  3  4  1  0
  4  5  2  0
  5  6  1  0
  6  7  2  3
  7  8  1  0
  8  9  2  0
  9 10  1  0
 10 11  2  0
 11 12  1  0
 11 13  1  0
 13 14  2  0
  6 15  1  0
 15 16  1  0
 16 17  2  3
 17 18  1  0
 18 19  1  0
 19 20  1  0
 20 21  1  0
 21 22  1  0
 22 23  1  0
 23 24  1  0
 24 25  1  0
 16 26  1  0
 26 27  2  0
 27  1  1  0
 27  5  1  0
 14  8  1  0
 25 20  1  0
  1 28  1  0
  2 29  1  0
  3 30  1  0
  9 31  1  0
 10 32  1  0
 12 33  1  0
 12 34  1  0
 12 35  1  0
 13 36  1  0
 14 37  1  0
 15 38  1  0
 18 39  1  0
 18 40  1  0
 19 41  1  0
 19 42  1  0
 20 43  1  0
 21 44  1  0
 21 45  1  0
 22 46  1  0
 22 47  1  0
 24 48  1  0
 24 49  1  0
 25 50  1  0
 25 51  1  0
M  CHG  1  20   1
M  END
>  <ScrubInfo>  (9) 
{"isomerGroup": 0, "isomerId": 8, "confId": 0, "nr_conformers:": 1, "nr_isomers:": 9}

$$$$
