REMARK SMILES Cc1ccc(Nc2nc(NCC[NH+]3CCOCC3)nc3nccnc23)cc1
REMARK SMILES IDX 10 1 11 3 12 4 13 5 14 6 18 7 15 8 17 9 16 10 9 12 8 13
REMARK SMILES IDX 19 14 7 15 20 16 25 17 21 18 24 19 22 20 23 21 6 22 5 24
REMARK SMILES IDX 4 25 26 26 3 27 27 28 2 29 1 30
REMARK H PARENT 10 2 13 11 6 23
ROOT
ATOM      1  N   UNL     1      -2.889  -1.661  -4.910  1.00  0.00    -0.348 N 
ATOM      2  H   UNL     1      -3.201  -2.518  -5.376  1.00  0.00     0.163 HD
ENDROOT
BRANCH   1   3
ATOM      3  C   UNL     1      -3.090  -0.485  -5.758  1.00  0.00     0.177 C 
BRANCH   3   4
ATOM      4  C   UNL     1      -3.425   0.781  -4.937  1.00  0.00     0.283 C 
BRANCH   4   5
ATOM      5  N   UNL     1      -2.240   1.312  -4.161  1.00  0.00    -0.330 N 
ATOM      6  C   UNL     1      -1.206   2.071  -4.976  1.00  0.00     0.291 C 
ATOM      7  C   UNL     1      -2.618   2.128  -2.938  1.00  0.00     0.291 C 
ATOM      8  C   UNL     1      -1.700   3.491  -5.291  1.00  0.00     0.221 C 
ATOM      9  C   UNL     1      -3.080   3.527  -3.356  1.00  0.00     0.221 C 
ATOM     10  O   UNL     1      -2.059   4.204  -4.102  1.00  0.00    -0.370 OA
ATOM     11  H   UNL     1      -1.741   0.472  -3.799  1.00  0.00     0.348 HD
ENDBRANCH   4   5
ENDBRANCH   3   4
ENDBRANCH   1   3
BRANCH   1  12
ATOM     12  C   UNL     1      -1.560  -1.938  -4.619  1.00  0.00     0.227 A 
ATOM     13  N   UNL     1      -0.839  -1.013  -3.987  1.00  0.00    -0.193 NA
ATOM     14  N   UNL     1      -1.107  -3.125  -4.989  1.00  0.00    -0.191 NA
ATOM     15  C   UNL     1       0.442  -1.341  -3.698  1.00  0.00     0.164 A 
ATOM     16  C   UNL     1       0.165  -3.421  -4.731  1.00  0.00     0.185 A 
ATOM     17  C   UNL     1       1.033  -2.542  -4.072  1.00  0.00     0.150 A 
ATOM     18  N   UNL     1       0.621  -4.612  -5.129  1.00  0.00    -0.233 NA
ATOM     19  N   UNL     1       2.338  -2.839  -3.802  1.00  0.00    -0.247 NA
ATOM     20  C   UNL     1       1.913  -4.921  -4.867  1.00  0.00     0.133 A 
ATOM     21  C   UNL     1       2.759  -4.051  -4.215  1.00  0.00     0.132 A 
BRANCH  15  22
ATOM     22  N   UNL     1       1.250  -0.365  -3.042  1.00  0.00    -0.338 N 
ATOM     23  H   UNL     1       2.122  -0.835  -2.763  1.00  0.00     0.168 HD
BRANCH  22  24
ATOM     24  C   UNL     1       0.818   0.450  -1.968  1.00  0.00     0.040 A 
ATOM     25  C   UNL     1      -0.145   0.028  -1.043  1.00  0.00     0.026 A 
ATOM     26  C   UNL     1       1.475   1.664  -1.744  1.00  0.00     0.026 A 
ATOM     27  C   UNL     1      -0.485   0.832   0.050  1.00  0.00     0.005 A 
ATOM     28  C   UNL     1       1.129   2.474  -0.658  1.00  0.00     0.005 A 
ATOM     29  C   UNL     1       0.135   2.070   0.239  1.00  0.00    -0.051 A 
ATOM     30  C   UNL     1      -0.192   2.916   1.435  1.00  0.00     0.044 C 
ENDBRANCH  22  24
ENDBRANCH  15  22
ENDBRANCH   1  12
TORSDOF 6
