REMARK SMILES OCCOCCNc1nc(-c2ccc(Cl)cc2)nc2c1CCCC2
REMARK SMILES IDX 5 1 4 2 3 3 2 4 1 5 6 7 7 8 8 10 9 11 20 12 10 13 19 14
REMARK SMILES IDX 21 15 18 16 24 17 22 18 23 19 11 20 12 21 17 22 13 23 16 24
REMARK SMILES IDX 14 25 15 26
REMARK H PARENT 1 6 7 9
ROOT
ATOM      1  C   UNL     1       2.422   0.957   0.278  1.00  0.00     0.181 C 
ENDROOT
BRANCH   1   2
ATOM      2  O   UNL     1       3.237   2.069  -0.117  1.00  0.00    -0.377 OA
BRANCH   2   3
ATOM      3  C   UNL     1       4.640   1.791  -0.012  1.00  0.00     0.188 C 
BRANCH   3   4
ATOM      4  C   UNL     1       5.398   3.040  -0.451  1.00  0.00     0.184 C 
BRANCH   4   5
ATOM      5  O   UNL     1       5.060   4.133   0.400  1.00  0.00    -0.394 OA
ATOM      6  H   UNL     1       4.085   4.115   0.464  1.00  0.00     0.210 HD
ENDBRANCH   4   5
ENDBRANCH   3   4
ENDBRANCH   2   3
ENDBRANCH   1   2
BRANCH   1   7
ATOM      7  C   UNL     1       2.163   0.004  -0.899  1.00  0.00     0.143 C 
BRANCH   7   8
ATOM      8  N   UNL     1       1.487  -1.229  -0.484  1.00  0.00    -0.367 N 
ATOM      9  H   UNL     1       1.645  -1.974  -1.158  1.00  0.00     0.162 HD
BRANCH   8  10
ATOM     10  C   UNL     1       0.100  -1.131  -0.259  1.00  0.00     0.133 A 
ATOM     11  N   UNL     1      -0.501   0.059  -0.398  1.00  0.00    -0.211 NA
ATOM     12  C   UNL     1      -0.606  -2.266   0.132  1.00  0.00     0.016 A 
ATOM     13  C   UNL     1      -1.825   0.130  -0.180  1.00  0.00     0.161 A 
ATOM     14  C   UNL     1      -1.974  -2.104   0.314  1.00  0.00     0.050 A 
ATOM     15  C   UNL     1       0.059  -3.607   0.297  1.00  0.00     0.041 C 
ATOM     16  N   UNL     1      -2.591  -0.916   0.166  1.00  0.00    -0.233 NA
ATOM     17  C   UNL     1      -2.854  -3.245   0.753  1.00  0.00     0.057 C 
ATOM     18  C   UNL     1      -0.799  -4.632   1.040  1.00  0.00     0.005 C 
ATOM     19  C   UNL     1      -2.227  -4.615   0.513  1.00  0.00     0.007 C 
BRANCH  13  20
ATOM     20  C   UNL     1      -2.479   1.447  -0.335  1.00  0.00     0.019 A 
ATOM     21  C   UNL     1      -3.869   1.604  -0.157  1.00  0.00     0.013 A 
ATOM     22  C   UNL     1      -1.741   2.602  -0.667  1.00  0.00     0.013 A 
ATOM     23  C   UNL     1      -4.491   2.850  -0.303  1.00  0.00     0.021 A 
ATOM     24  C   UNL     1      -2.357   3.850  -0.814  1.00  0.00     0.021 A 
ATOM     25  C   UNL     1      -3.731   3.968  -0.631  1.00  0.00     0.041 A 
ATOM     26  Cl  UNL     1      -4.492   5.499  -0.811  1.00  0.00    -0.084 Cl
ENDBRANCH  13  20
ENDBRANCH   8  10
ENDBRANCH   7   8
ENDBRANCH   1   7
TORSDOF 8
