_i0
     RDKit          3D

 46 48  0  0  0  0  0  0  0  0999 V2000
    5.0599    4.1329    0.4004 O   0  0  0  0  0  0  0  0  0  0  0  0
    5.3977    3.0397   -0.4513 C   0  0  0  0  0  0  0  0  0  0  0  0
    4.6399    1.7909   -0.0119 C   0  0  0  0  0  0  0  0  0  0  0  0
    3.2373    2.0686   -0.1167 O   0  0  0  0  0  0  0  0  0  0  0  0
    2.4222    0.9566    0.2782 C   0  0  0  0  0  0  0  0  0  0  0  0
    2.1627    0.0044   -0.8988 C   0  0  0  0  0  0  0  0  0  0  0  0
    1.4874   -1.2290   -0.4837 N   0  0  0  0  0  0  0  0  0  0  0  0
    0.0998   -1.1313   -0.2585 C   0  0  0  0  0  0  0  0  0  0  0  0
   -0.5010    0.0595   -0.3980 N   0  0  0  0  0  0  0  0  0  0  0  0
   -1.8252    0.1303   -0.1805 C   0  0  0  0  0  0  0  0  0  0  0  0
   -2.4791    1.4470   -0.3354 C   0  0  0  0  0  0  0  0  0  0  0  0
   -3.8685    1.6044   -0.1570 C   0  0  0  0  0  0  0  0  0  0  0  0
   -4.4908    2.8501   -0.3029 C   0  0  0  0  0  0  0  0  0  0  0  0
   -3.7308    3.9677   -0.6312 C   0  0  0  0  0  0  0  0  0  0  0  0
   -4.4919    5.4994   -0.8115 Cl  0  0  0  0  0  0  0  0  0  0  0  0
   -2.3572    3.8500   -0.8140 C   0  0  0  0  0  0  0  0  0  0  0  0
   -1.7407    2.6015   -0.6671 C   0  0  0  0  0  0  0  0  0  0  0  0
   -2.5912   -0.9164    0.1657 N   0  0  0  0  0  0  0  0  0  0  0  0
   -1.9736   -2.1044    0.3137 C   0  0  0  0  0  0  0  0  0  0  0  0
   -0.6059   -2.2663    0.1323 C   0  0  0  0  0  0  0  0  0  0  0  0
    0.0585   -3.6072    0.2973 C   0  0  0  0  0  0  0  0  0  0  0  0
   -0.7992   -4.6319    1.0398 C   0  0  0  0  0  0  0  0  0  0  0  0
   -2.2274   -4.6151    0.5130 C   0  0  0  0  0  0  0  0  0  0  0  0
   -2.8542   -3.2453    0.7530 C   0  0  0  0  0  0  0  0  0  0  0  0
    4.0845    4.1154    0.4642 H   0  0  0  0  0  0  0  0  0  0  0  0
    5.1262    3.3211   -1.4736 H   0  0  0  0  0  0  0  0  0  0  0  0
    6.4783    2.8811   -0.3988 H   0  0  0  0  0  0  0  0  0  0  0  0
    4.8762    1.5615    1.0331 H   0  0  0  0  0  0  0  0  0  0  0  0
    4.9106    0.9442   -0.6493 H   0  0  0  0  0  0  0  0  0  0  0  0
    2.8762    0.4291    1.1262 H   0  0  0  0  0  0  0  0  0  0  0  0
    1.4789    1.3774    0.6392 H   0  0  0  0  0  0  0  0  0  0  0  0
    1.6328    0.5174   -1.7118 H   0  0  0  0  0  0  0  0  0  0  0  0
    3.1260   -0.2853   -1.3342 H   0  0  0  0  0  0  0  0  0  0  0  0
    1.6450   -1.9741   -1.1578 H   0  0  0  0  0  0  0  0  0  0  0  0
   -4.4836    0.7430    0.1010 H   0  0  0  0  0  0  0  0  0  0  0  0
   -5.5643    2.9349   -0.1579 H   0  0  0  0  0  0  0  0  0  0  0  0
   -1.7568    4.7190   -1.0692 H   0  0  0  0  0  0  0  0  0  0  0  0
   -0.6631    2.5348   -0.8137 H   0  0  0  0  0  0  0  0  0  0  0  0
    1.0044   -3.4984    0.8410 H   0  0  0  0  0  0  0  0  0  0  0  0
    0.2912   -3.9965   -0.7020 H   0  0  0  0  0  0  0  0  0  0  0  0
   -0.8023   -4.4054    2.1137 H   0  0  0  0  0  0  0  0  0  0  0  0
   -0.3631   -5.6305    0.9246 H   0  0  0  0  0  0  0  0  0  0  0  0
   -2.8244   -5.3872    1.0110 H   0  0  0  0  0  0  0  0  0  0  0  0
   -2.2282   -4.8468   -0.5595 H   0  0  0  0  0  0  0  0  0  0  0  0
   -3.0576   -3.1196    1.8237 H   0  0  0  0  0  0  0  0  0  0  0  0
   -3.8156   -3.1909    0.2291 H   0  0  0  0  0  0  0  0  0  0  0  0
  1  2  1  0
  2  3  1  0
  3  4  1  0
  4  5  1  0
  5  6  1  0
  6  7  1  0
  7  8  1  0
  8  9  2  0
  9 10  1  0
 10 11  1  0
 11 12  2  0
 12 13  1  0
 13 14  2  0
 14 15  1  0
 14 16  1  0
 16 17  2  0
 10 18  2  0
 18 19  1  0
 19 20  2  0
 20 21  1  0
 21 22  1  0
 22 23  1  0
 23 24  1  0
 20  8  1  0
 17 11  1  0
 24 19  1  0
  1 25  1  0
  2 26  1  0
  2 27  1  0
  3 28  1  0
  3 29  1  0
  5 30  1  0
  5 31  1  0
  6 32  1  0
  6 33  1  0
  7 34  1  0
 12 35  1  0
 13 36  1  0
 16 37  1  0
 17 38  1  0
 21 39  1  0
 21 40  1  0
 22 41  1  0
 22 42  1  0
 23 43  1  0
 23 44  1  0
 24 45  1  0
 24 46  1  0
M  END
>  <ScrubInfo>  (1) 
{"isomerGroup": 0, "isomerId": 0, "confId": 0, "nr_conformers:": 1, "nr_isomers:": 3}

$$$$
_i1
     RDKit          3D

 46 48  0  0  0  0  0  0  0  0999 V2000
   -0.7757    0.5955    0.3232 N   0  0  0  0  0  0  0  0  0  0  0  0
   -2.0913    0.3206    0.0335 C   0  0  0  0  0  0  0  0  0  0  0  0
   -3.0418    1.4416   -0.2394 C   0  0  0  0  0  0  0  0  0  0  0  0
   -4.1486    1.2147   -1.0687 C   0  0  0  0  0  0  0  0  0  0  0  0
   -5.0464    2.2495   -1.3436 C   0  0  0  0  0  0  0  0  0  0  0  0
   -4.8420    3.5086   -0.7831 C   0  0  0  0  0  0  0  0  0  0  0  0
   -5.9460    4.7841   -1.1186 Cl  0  0  0  0  0  0  0  0  0  0  0  0
   -3.7507    3.7409    0.0541 C   0  0  0  0  0  0  0  0  0  0  0  0
   -2.8494    2.7074    0.3297 C   0  0  0  0  0  0  0  0  0  0  0  0
   -2.5465   -0.9011   -0.0219 N   0  0  0  0  0  0  0  0  0  0  0  0
   -1.6553   -1.9299    0.2341 C   0  0  0  0  0  0  0  0  0  0  0  0
   -0.3462   -1.7792    0.5320 C   0  0  0  0  0  0  0  0  0  0  0  0
    0.1654   -0.3717    0.5660 C   0  0  0  0  0  0  0  0  0  0  0  0
    1.4196   -0.1914    0.8067 N   0  0  0  0  0  0  0  0  0  0  0  0
    2.0085    1.1437    0.8566 C   0  0  0  0  0  0  0  0  0  0  0  0
    2.4223    1.6356   -0.5380 C   0  0  0  0  0  0  0  0  0  0  0  0
    3.2322    0.7337   -1.2911 O   0  0  0  0  0  0  0  0  0  0  0  0
    4.4992    0.4084   -0.7245 C   0  0  0  0  0  0  0  0  0  0  0  0
    5.5006    1.5570   -0.8216 C   0  0  0  0  0  0  0  0  0  0  0  0
    6.7663    1.1525   -0.3144 O   0  0  0  0  0  0  0  0  0  0  0  0
    0.6002   -2.9075    0.8195 C   0  0  0  0  0  0  0  0  0  0  0  0
   -0.1125   -4.2419    1.0451 C   0  0  0  0  0  0  0  0  0  0  0  0
   -1.2369   -4.4387    0.0367 C   0  0  0  0  0  0  0  0  0  0  0  0
   -2.2663   -3.3114    0.1385 C   0  0  0  0  0  0  0  0  0  0  0  0
   -0.4503    1.5403    0.2240 H   0  0  0  0  0  0  0  0  0  0  0  0
   -4.3136    0.2317   -1.5064 H   0  0  0  0  0  0  0  0  0  0  0  0
   -5.9000    2.0638   -1.9904 H   0  0  0  0  0  0  0  0  0  0  0  0
   -3.6040    4.7204    0.5025 H   0  0  0  0  0  0  0  0  0  0  0  0
   -2.0286    2.9014    1.0135 H   0  0  0  0  0  0  0  0  0  0  0  0
    1.3382    1.8699    1.3306 H   0  0  0  0  0  0  0  0  0  0  0  0
    2.8875    1.0920    1.5077 H   0  0  0  0  0  0  0  0  0  0  0  0
    1.5208    1.8027   -1.1377 H   0  0  0  0  0  0  0  0  0  0  0  0
    2.9235    2.6061   -0.4609 H   0  0  0  0  0  0  0  0  0  0  0  0
    4.8926   -0.4439   -1.2910 H   0  0  0  0  0  0  0  0  0  0  0  0
    4.4023    0.0492    0.3050 H   0  0  0  0  0  0  0  0  0  0  0  0
    5.1628    2.4241   -0.2469 H   0  0  0  0  0  0  0  0  0  0  0  0
    5.6155    1.8716   -1.8643 H   0  0  0  0  0  0  0  0  0  0  0  0
    7.3846    1.8862   -0.4732 H   0  0  0  0  0  0  0  0  0  0  0  0
    1.2038   -2.6876    1.7079 H   0  0  0  0  0  0  0  0  0  0  0  0
    1.2916   -3.0071   -0.0266 H   0  0  0  0  0  0  0  0  0  0  0  0
   -0.5255   -4.2713    2.0616 H   0  0  0  0  0  0  0  0  0  0  0  0
    0.6094   -5.0630    0.9714 H   0  0  0  0  0  0  0  0  0  0  0  0
   -1.7292   -5.4031    0.2052 H   0  0  0  0  0  0  0  0  0  0  0  0
   -0.8187   -4.4665   -0.9776 H   0  0  0  0  0  0  0  0  0  0  0  0
   -2.9270   -3.3663   -0.7355 H   0  0  0  0  0  0  0  0  0  0  0  0
   -2.8943   -3.4717    1.0242 H   0  0  0  0  0  0  0  0  0  0  0  0
  1  2  1  0
  2  3  1  0
  3  4  2  0
  4  5  1  0
  5  6  2  0
  6  7  1  0
  6  8  1  0
  8  9  2  0
  2 10  2  0
 10 11  1  0
 11 12  2  0
 12 13  1  0
 13 14  2  3
 14 15  1  0
 15 16  1  0
 16 17  1  0
 17 18  1  0
 18 19  1  0
 19 20  1  0
 12 21  1  0
 21 22  1  0
 22 23  1  0
 23 24  1  0
 13  1  1  0
  9  3  1  0
 24 11  1  0
  1 25  1  0
  4 26  1  0
  5 27  1  0
  8 28  1  0
  9 29  1  0
 15 30  1  0
 15 31  1  0
 16 32  1  0
 16 33  1  0
 18 34  1  0
 18 35  1  0
 19 36  1  0
 19 37  1  0
 20 38  1  0
 21 39  1  0
 21 40  1  0
 22 41  1  0
 22 42  1  0
 23 43  1  0
 23 44  1  0
 24 45  1  0
 24 46  1  0
M  END
>  <ScrubInfo>  (2) 
{"isomerGroup": 0, "isomerId": 1, "confId": 0, "nr_conformers:": 1, "nr_isomers:": 3}

$$$$
_i2
     RDKit          3D

 46 48  0  0  0  0  0  0  0  0999 V2000
    2.4602    1.0295   -0.2726 N   0  0  0  0  0  0  0  0  0  0  0  0
    1.7404   -0.1302   -0.1125 C   0  0  0  0  0  0  0  0  0  0  0  0
    2.4257   -1.4570   -0.2343 C   0  0  0  0  0  0  0  0  0  0  0  0
    1.8512   -2.5840    0.3715 C   0  0  0  0  0  0  0  0  0  0  0  0
    2.4716   -3.8325    0.2740 C   0  0  0  0  0  0  0  0  0  0  0  0
    3.6639   -3.9576   -0.4350 C   0  0  0  0  0  0  0  0  0  0  0  0
    4.4304   -5.4925   -0.5578 Cl  0  0  0  0  0  0  0  0  0  0  0  0
    4.2379   -2.8466   -1.0522 C   0  0  0  0  0  0  0  0  0  0  0  0
    3.6190   -1.5956   -0.9557 C   0  0  0  0  0  0  0  0  0  0  0  0
    0.4670   -0.1282    0.1499 N   0  0  0  0  0  0  0  0  0  0  0  0
   -0.2098    1.0629    0.2730 C   0  0  0  0  0  0  0  0  0  0  0  0
   -1.4736    1.0818    0.5312 N   0  0  0  0  0  0  0  0  0  0  0  0
   -2.1575   -0.2020    0.7228 C   0  0  0  0  0  0  0  0  0  0  0  0
   -2.6210   -0.7819   -0.6158 C   0  0  0  0  0  0  0  0  0  0  0  0
   -3.3212   -2.0186   -0.4503 O   0  0  0  0  0  0  0  0  0  0  0  0
   -4.7030   -1.8361   -0.1229 C   0  0  0  0  0  0  0  0  0  0  0  0
   -5.3474   -3.2027    0.0993 C   0  0  0  0  0  0  0  0  0  0  0  0
   -4.9910   -3.7140    1.3834 O   0  0  0  0  0  0  0  0  0  0  0  0
    0.5466    2.3435    0.0999 C   0  0  0  0  0  0  0  0  0  0  0  0
    1.8644    2.2614   -0.1516 C   0  0  0  0  0  0  0  0  0  0  0  0
    2.7284    3.4888   -0.2921 C   0  0  0  0  0  0  0  0  0  0  0  0
    2.0509    4.7660    0.2110 C   0  0  0  0  0  0  0  0  0  0  0  0
    0.6034    4.8431   -0.2621 C   0  0  0  0  0  0  0  0  0  0  0  0
   -0.2043    3.6370    0.2252 C   0  0  0  0  0  0  0  0  0  0  0  0
    3.4699    1.0089   -0.3321 H   0  0  0  0  0  0  0  0  0  0  0  0
    0.9164   -2.4960    0.9230 H   0  0  0  0  0  0  0  0  0  0  0  0
    2.0158   -4.6973    0.7491 H   0  0  0  0  0  0  0  0  0  0  0  0
    5.1606   -2.9506   -1.6177 H   0  0  0  0  0  0  0  0  0  0  0  0
    4.0676   -0.7545   -1.4746 H   0  0  0  0  0  0  0  0  0  0  0  0
   -3.0236   -0.0183    1.3677 H   0  0  0  0  0  0  0  0  0  0  0  0
   -1.5547   -0.9325    1.2771 H   0  0  0  0  0  0  0  0  0  0  0  0
   -3.2376   -0.0632   -1.1693 H   0  0  0  0  0  0  0  0  0  0  0  0
   -1.7507   -0.9970   -1.2448 H   0  0  0  0  0  0  0  0  0  0  0  0
   -5.1943   -1.3350   -0.9638 H   0  0  0  0  0  0  0  0  0  0  0  0
   -4.7996   -1.2248    0.7794 H   0  0  0  0  0  0  0  0  0  0  0  0
   -6.4376   -3.1179    0.0704 H   0  0  0  0  0  0  0  0  0  0  0  0
   -5.0147   -3.9175   -0.6602 H   0  0  0  0  0  0  0  0  0  0  0  0
   -5.2021   -4.6625    1.3778 H   0  0  0  0  0  0  0  0  0  0  0  0
    3.6677    3.3529    0.2576 H   0  0  0  0  0  0  0  0  0  0  0  0
    2.9905    3.6088   -1.3509 H   0  0  0  0  0  0  0  0  0  0  0  0
    2.0776    4.7895    1.3079 H   0  0  0  0  0  0  0  0  0  0  0  0
    2.6089    5.6414   -0.1399 H   0  0  0  0  0  0  0  0  0  0  0  0
    0.1378    5.7678    0.0972 H   0  0  0  0  0  0  0  0  0  0  0  0
    0.5812    4.8810   -1.3589 H   0  0  0  0  0  0  0  0  0  0  0  0
   -0.4726    3.7849    1.2788 H   0  0  0  0  0  0  0  0  0  0  0  0
   -1.1393    3.5971   -0.3459 H   0  0  0  0  0  0  0  0  0  0  0  0
  1  2  1  0
  2  3  1  0
  3  4  2  0
  4  5  1  0
  5  6  2  0
  6  7  1  0
  6  8  1  0
  8  9  2  0
  2 10  2  0
 10 11  1  0
 11 12  2  3
 12 13  1  0
 13 14  1  0
 14 15  1  0
 15 16  1  0
 16 17  1  0
 17 18  1  0
 11 19  1  0
 19 20  2  0
 20 21  1  0
 21 22  1  0
 22 23  1  0
 23 24  1  0
 20  1  1  0
  9  3  1  0
 24 19  1  0
  1 25  1  0
  4 26  1  0
  5 27  1  0
  8 28  1  0
  9 29  1  0
 13 30  1  0
 13 31  1  0
 14 32  1  0
 14 33  1  0
 16 34  1  0
 16 35  1  0
 17 36  1  0
 17 37  1  0
 18 38  1  0
 21 39  1  0
 21 40  1  0
 22 41  1  0
 22 42  1  0
 23 43  1  0
 23 44  1  0
 24 45  1  0
 24 46  1  0
M  END
>  <ScrubInfo>  (3) 
{"isomerGroup": 0, "isomerId": 2, "confId": 0, "nr_conformers:": 1, "nr_isomers:": 3}

$$$$
