_i0
     RDKit          3D

 46 48  0  0  0  0  0  0  0  0999 V2000
    5.9245    2.1773   -0.8307 C   0  0  0  0  0  0  0  0  0  0  0  0
    5.4806    1.0536    0.0929 C   0  0  0  0  0  0  0  0  0  0  0  0
    4.0474    1.2123    0.6049 C   0  0  0  0  0  0  0  0  0  0  0  0
    2.9964    1.1297   -0.5050 C   0  0  0  0  0  0  0  0  0  0  0  0
    1.6564    1.1957    0.0543 N   0  0  0  0  0  0  0  0  0  0  0  0
    1.0347   -0.0163    0.3174 C   0  0  0  0  0  0  0  0  0  0  0  0
   -0.3062    0.0039    0.1665 N   0  0  0  0  0  0  0  0  0  0  0  0
   -1.0532   -1.1081    0.3964 C   0  0  0  0  0  0  0  0  0  0  0  0
   -2.4442   -1.1055    0.2277 N   0  0  0  0  0  0  0  0  0  0  0  0
   -3.4114   -0.1604   -0.1780 C   0  0  0  0  0  0  0  0  0  0  0  0
   -4.7240   -0.6463   -0.3619 C   0  0  0  0  0  0  0  0  0  0  0  0
   -5.7756    0.1798   -0.7777 C   0  0  0  0  0  0  0  0  0  0  0  0
   -5.5480    1.5294   -1.0382 C   0  0  0  0  0  0  0  0  0  0  0  0
   -6.6699    2.4335   -1.4502 C   0  0  0  0  0  0  0  0  0  0  0  0
   -4.2607    2.0356   -0.8495 C   0  0  0  0  0  0  0  0  0  0  0  0
   -3.2127    1.2041   -0.4335 C   0  0  0  0  0  0  0  0  0  0  0  0
   -2.0165    1.8467   -0.2865 O   0  0  0  0  0  0  0  0  0  0  0  0
   -0.3639   -2.2578    0.8029 C   0  0  0  0  0  0  0  0  0  0  0  0
   -0.6521   -3.5940    1.1529 C   0  0  0  0  0  0  0  0  0  0  0  0
    0.4398   -4.2971    1.4724 N   0  0  0  0  0  0  0  0  0  0  0  0
    1.4399   -3.3959    1.3300 N   0  0  0  0  0  0  0  0  0  0  0  0
    2.7984   -3.7925    1.6028 C   0  0  0  0  0  0  0  0  0  0  0  0
    1.0082   -2.1629    0.9243 C   0  0  0  0  0  0  0  0  0  0  0  0
    1.7574   -1.0777    0.6904 N   0  0  0  0  0  0  0  0  0  0  0  0
    6.9831    2.0592   -1.0834 H   0  0  0  0  0  0  0  0  0  0  0  0
    5.3590    2.1739   -1.7671 H   0  0  0  0  0  0  0  0  0  0  0  0
    5.7974    3.1533   -0.3519 H   0  0  0  0  0  0  0  0  0  0  0  0
    6.1563    1.0253    0.9562 H   0  0  0  0  0  0  0  0  0  0  0  0
    5.5871    0.0928   -0.4239 H   0  0  0  0  0  0  0  0  0  0  0  0
    3.8661    0.4306    1.3521 H   0  0  0  0  0  0  0  0  0  0  0  0
    3.9479    2.1681    1.1349 H   0  0  0  0  0  0  0  0  0  0  0  0
    3.1398    0.2375   -1.1278 H   0  0  0  0  0  0  0  0  0  0  0  0
    3.1151    1.9913   -1.1718 H   0  0  0  0  0  0  0  0  0  0  0  0
    0.9965    1.7544   -0.4780 H   0  0  0  0  0  0  0  0  0  0  0  0
   -2.8503   -2.0122    0.4198 H   0  0  0  0  0  0  0  0  0  0  0  0
   -4.9509   -1.6949   -0.1818 H   0  0  0  0  0  0  0  0  0  0  0  0
   -6.7704   -0.2434   -0.8972 H   0  0  0  0  0  0  0  0  0  0  0  0
   -6.3049    3.2399   -2.0951 H   0  0  0  0  0  0  0  0  0  0  0  0
   -7.1409    2.8730   -0.5657 H   0  0  0  0  0  0  0  0  0  0  0  0
   -7.4277    1.8827   -2.0174 H   0  0  0  0  0  0  0  0  0  0  0  0
   -4.0552    3.0898   -1.0229 H   0  0  0  0  0  0  0  0  0  0  0  0
   -1.3726    1.1648   -0.0060 H   0  0  0  0  0  0  0  0  0  0  0  0
   -1.6129   -4.0903    1.1896 H   0  0  0  0  0  0  0  0  0  0  0  0
    3.0622   -4.6053    0.9215 H   0  0  0  0  0  0  0  0  0  0  0  0
    3.4737   -2.9475    1.4505 H   0  0  0  0  0  0  0  0  0  0  0  0
    2.8561   -4.1299    2.6408 H   0  0  0  0  0  0  0  0  0  0  0  0
  1  2  1  0
  2  3  1  0
  3  4  1  0
  4  5  1  0
  5  6  1  0
  6  7  2  0
  7  8  1  0
  8  9  1  0
  9 10  1  0
 10 11  2  0
 11 12  1  0
 12 13  2  0
 13 14  1  0
 13 15  1  0
 15 16  2  0
 16 17  1  0
  8 18  2  0
 18 19  1  0
 19 20  2  0
 20 21  1  0
 21 22  1  0
 21 23  1  0
 23 24  2  0
 24  6  1  0
 16 10  1  0
 23 18  1  0
  1 25  1  0
  1 26  1  0
  1 27  1  0
  2 28  1  0
  2 29  1  0
  3 30  1  0
  3 31  1  0
  4 32  1  0
  4 33  1  0
  5 34  1  0
  9 35  1  0
 11 36  1  0
 12 37  1  0
 14 38  1  0
 14 39  1  0
 14 40  1  0
 15 41  1  0
 17 42  1  0
 19 43  1  0
 22 44  1  0
 22 45  1  0
 22 46  1  0
M  END
>  <ScrubInfo>  (1) 
{"isomerGroup": 0, "isomerId": 0, "confId": 0, "nr_conformers:": 1, "nr_isomers:": 9}

$$$$
_i1
     RDKit          3D

 46 48  0  0  0  0  0  0  0  0999 V2000
    0.7223    0.5756   -0.5923 N   0  0  0  0  0  0  0  0  0  0  0  0
   -0.4555    0.1104   -1.1370 C   0  0  0  0  0  0  0  0  0  0  0  0
   -1.4965    0.9636   -1.4351 N   0  0  0  0  0  0  0  0  0  0  0  0
   -2.7402    1.0293   -0.7515 C   0  0  0  0  0  0  0  0  0  0  0  0
   -3.2316    0.0198    0.0804 C   0  0  0  0  0  0  0  0  0  0  0  0
   -4.5025    0.1262    0.6592 C   0  0  0  0  0  0  0  0  0  0  0  0
   -5.3188    1.2337    0.4001 C   0  0  0  0  0  0  0  0  0  0  0  0
   -6.6648    1.3524    1.0524 C   0  0  0  0  0  0  0  0  0  0  0  0
   -4.8380    2.2532   -0.4277 C   0  0  0  0  0  0  0  0  0  0  0  0
   -3.5702    2.1386   -0.9980 C   0  0  0  0  0  0  0  0  0  0  0  0
   -3.0803    3.1355   -1.8063 O   0  0  0  0  0  0  0  0  0  0  0  0
   -0.4725   -1.1960   -1.4226 C   0  0  0  0  0  0  0  0  0  0  0  0
   -1.3812   -2.1524   -2.0601 C   0  0  0  0  0  0  0  0  0  0  0  0
   -0.8863   -3.3641   -2.1186 N   0  0  0  0  0  0  0  0  0  0  0  0
    0.3667   -3.2889   -1.4828 N   0  0  0  0  0  0  0  0  0  0  0  0
    1.3078   -4.3661   -1.6721 C   0  0  0  0  0  0  0  0  0  0  0  0
    0.7165   -2.0067   -1.0887 C   0  0  0  0  0  0  0  0  0  0  0  0
    1.8059   -1.5596   -0.5612 N   0  0  0  0  0  0  0  0  0  0  0  0
    1.8048   -0.2087   -0.2848 C   0  0  0  0  0  0  0  0  0  0  0  0
    2.8274    0.3477    0.2771 N   0  0  0  0  0  0  0  0  0  0  0  0
    3.9622   -0.5198    0.5958 C   0  0  0  0  0  0  0  0  0  0  0  0
    5.0540    0.3156    1.2665 C   0  0  0  0  0  0  0  0  0  0  0  0
    4.6386    0.8194    2.6507 C   0  0  0  0  0  0  0  0  0  0  0  0
    5.7567    1.6100    3.3121 C   0  0  0  0  0  0  0  0  0  0  0  0
    0.7723    1.5381   -0.2969 H   0  0  0  0  0  0  0  0  0  0  0  0
   -1.1997    1.9223   -1.6240 H   0  0  0  0  0  0  0  0  0  0  0  0
   -2.6390   -0.8589    0.3140 H   0  0  0  0  0  0  0  0  0  0  0  0
   -4.8505   -0.6691    1.3161 H   0  0  0  0  0  0  0  0  0  0  0  0
   -7.1092    0.3647    1.2137 H   0  0  0  0  0  0  0  0  0  0  0  0
   -7.3562    1.9199    0.4206 H   0  0  0  0  0  0  0  0  0  0  0  0
   -6.5692    1.8597    2.0173 H   0  0  0  0  0  0  0  0  0  0  0  0
   -5.4544    3.1270   -0.6173 H   0  0  0  0  0  0  0  0  0  0  0  0
   -3.7877    3.7868   -1.9485 H   0  0  0  0  0  0  0  0  0  0  0  0
   -2.3559   -1.8354   -2.4530 H   0  0  0  0  0  0  0  0  0  0  0  0
    1.8492   -4.2381   -2.6146 H   0  0  0  0  0  0  0  0  0  0  0  0
    2.0344   -4.3977   -0.8540 H   0  0  0  0  0  0  0  0  0  0  0  0
    0.7918   -5.3314   -1.6970 H   0  0  0  0  0  0  0  0  0  0  0  0
    3.6631   -1.3348    1.2661 H   0  0  0  0  0  0  0  0  0  0  0  0
    4.3762   -0.9530   -0.3230 H   0  0  0  0  0  0  0  0  0  0  0  0
    5.9556   -0.3013    1.3639 H   0  0  0  0  0  0  0  0  0  0  0  0
    5.3135    1.1681    0.6266 H   0  0  0  0  0  0  0  0  0  0  0  0
    3.7511    1.4573    2.5718 H   0  0  0  0  0  0  0  0  0  0  0  0
    4.3722   -0.0297    3.2908 H   0  0  0  0  0  0  0  0  0  0  0  0
    5.4403    1.9601    4.2997 H   0  0  0  0  0  0  0  0  0  0  0  0
    6.0266    2.4847    2.7119 H   0  0  0  0  0  0  0  0  0  0  0  0
    6.6510    0.9921    3.4414 H   0  0  0  0  0  0  0  0  0  0  0  0
  1  2  1  0
  2  3  1  0
  3  4  1  0
  4  5  2  0
  5  6  1  0
  6  7  2  0
  7  8  1  0
  7  9  1  0
  9 10  2  0
 10 11  1  0
  2 12  2  0
 12 13  1  0
 13 14  2  0
 14 15  1  0
 15 16  1  0
 15 17  1  0
 17 18  2  0
 18 19  1  0
 19 20  2  3
 20 21  1  0
 21 22  1  0
 22 23  1  0
 23 24  1  0
 19  1  1  0
 10  4  1  0
 17 12  1  0
  1 25  1  0
  3 26  1  0
  5 27  1  0
  6 28  1  0
  8 29  1  0
  8 30  1  0
  8 31  1  0
  9 32  1  0
 11 33  1  0
 13 34  1  0
 16 35  1  0
 16 36  1  0
 16 37  1  0
 21 38  1  0
 21 39  1  0
 22 40  1  0
 22 41  1  0
 23 42  1  0
 23 43  1  0
 24 44  1  0
 24 45  1  0
 24 46  1  0
M  END
>  <ScrubInfo>  (2) 
{"isomerGroup": 0, "isomerId": 1, "confId": 0, "nr_conformers:": 1, "nr_isomers:": 9}

$$$$
_i2
     RDKit          3D

 46 48  0  0  0  0  0  0  0  0999 V2000
   -0.3449   -1.6322   -0.3511 N   0  0  0  0  0  0  0  0  0  0  0  0
   -1.5792   -1.0272   -0.3339 C   0  0  0  0  0  0  0  0  0  0  0  0
   -2.6086   -1.9319   -0.3803 N   0  0  0  0  0  0  0  0  0  0  0  0
   -3.9976   -1.4987   -0.4628 C   0  0  0  0  0  0  0  0  0  0  0  0
   -4.5151   -1.0934    0.9179 C   0  0  0  0  0  0  0  0  0  0  0  0
   -6.0064   -0.7524    0.9271 C   0  0  0  0  0  0  0  0  0  0  0  0
   -6.3451    0.4943    0.1244 C   0  0  0  0  0  0  0  0  0  0  0  0
   -1.7512    0.2679   -0.2772 N   0  0  0  0  0  0  0  0  0  0  0  0
   -0.5633    0.9347   -0.2487 C   0  0  0  0  0  0  0  0  0  0  0  0
    0.7212    0.4133   -0.2501 C   0  0  0  0  0  0  0  0  0  0  0  0
    1.5547    1.5455   -0.2469 C   0  0  0  0  0  0  0  0  0  0  0  0
    0.8693    2.6968   -0.2326 N   0  0  0  0  0  0  0  0  0  0  0  0
   -0.4218    2.2932   -0.2207 N   0  0  0  0  0  0  0  0  0  0  0  0
   -1.4723    3.2794   -0.2026 C   0  0  0  0  0  0  0  0  0  0  0  0
    0.8889   -1.0266   -0.2702 C   0  0  0  0  0  0  0  0  0  0  0  0
    1.9817   -1.7258   -0.2263 N   0  0  0  0  0  0  0  0  0  0  0  0
    3.2355   -1.1229   -0.0671 C   0  0  0  0  0  0  0  0  0  0  0  0
    4.0669   -0.9740   -1.1794 C   0  0  0  0  0  0  0  0  0  0  0  0
    5.3361   -0.4035   -1.0480 C   0  0  0  0  0  0  0  0  0  0  0  0
    5.8048    0.0043    0.2073 C   0  0  0  0  0  0  0  0  0  0  0  0
    7.1534    0.6489    0.3394 C   0  0  0  0  0  0  0  0  0  0  0  0
    4.9791   -0.1490    1.3290 C   0  0  0  0  0  0  0  0  0  0  0  0
    3.7120   -0.7190    1.1899 C   0  0  0  0  0  0  0  0  0  0  0  0
    2.9048   -0.8709    2.2871 O   0  0  0  0  0  0  0  0  0  0  0  0
   -0.3093   -2.6283   -0.2127 H   0  0  0  0  0  0  0  0  0  0  0  0
   -2.4190   -2.7412   -0.9591 H   0  0  0  0  0  0  0  0  0  0  0  0
   -4.0989   -0.6865   -1.1906 H   0  0  0  0  0  0  0  0  0  0  0  0
   -4.5955   -2.3377   -0.8375 H   0  0  0  0  0  0  0  0  0  0  0  0
   -3.9446   -0.2413    1.3063 H   0  0  0  0  0  0  0  0  0  0  0  0
   -4.3450   -1.9201    1.6197 H   0  0  0  0  0  0  0  0  0  0  0  0
   -6.5870   -1.6010    0.5474 H   0  0  0  0  0  0  0  0  0  0  0  0
   -6.3199   -0.5934    1.9658 H   0  0  0  0  0  0  0  0  0  0  0  0
   -6.1608    0.3466   -0.9436 H   0  0  0  0  0  0  0  0  0  0  0  0
   -5.7550    1.3520    0.4625 H   0  0  0  0  0  0  0  0  0  0  0  0
   -7.4044    0.7428    0.2461 H   0  0  0  0  0  0  0  0  0  0  0  0
    2.6339    1.6008   -0.2602 H   0  0  0  0  0  0  0  0  0  0  0  0
   -1.5101    3.7553   -1.1856 H   0  0  0  0  0  0  0  0  0  0  0  0
   -1.2431    4.0179    0.5701 H   0  0  0  0  0  0  0  0  0  0  0  0
   -2.4296    2.8036    0.0215 H   0  0  0  0  0  0  0  0  0  0  0  0
    3.7196   -1.3021   -2.1552 H   0  0  0  0  0  0  0  0  0  0  0  0
    5.9574   -0.2852   -1.9331 H   0  0  0  0  0  0  0  0  0  0  0  0
    7.0629    1.7328    0.2192 H   0  0  0  0  0  0  0  0  0  0  0  0
    7.8460    0.2652   -0.4171 H   0  0  0  0  0  0  0  0  0  0  0  0
    7.5934    0.4362    1.3194 H   0  0  0  0  0  0  0  0  0  0  0  0
    5.3323    0.1780    2.3027 H   0  0  0  0  0  0  0  0  0  0  0  0
    3.3740   -0.5452    3.0708 H   0  0  0  0  0  0  0  0  0  0  0  0
  1  2  1  0
  2  3  1  0
  3  4  1  0
  4  5  1  0
  5  6  1  0
  6  7  1  0
  2  8  2  0
  8  9  1  0
  9 10  2  0
 10 11  1  0
 11 12  2  0
 12 13  1  0
 13 14  1  0
 10 15  1  0
 15 16  2  3
 16 17  1  0
 17 18  2  0
 18 19  1  0
 19 20  2  0
 20 21  1  0
 20 22  1  0
 22 23  2  0
 23 24  1  0
 15  1  1  0
 23 17  1  0
 13  9  1  0
  1 25  1  0
  3 26  1  0
  4 27  1  0
  4 28  1  0
  5 29  1  0
  5 30  1  0
  6 31  1  0
  6 32  1  0
  7 33  1  0
  7 34  1  0
  7 35  1  0
 11 36  1  0
 14 37  1  0
 14 38  1  0
 14 39  1  0
 18 40  1  0
 19 41  1  0
 21 42  1  0
 21 43  1  0
 21 44  1  0
 22 45  1  0
 24 46  1  0
M  END
>  <ScrubInfo>  (3) 
{"isomerGroup": 0, "isomerId": 2, "confId": 0, "nr_conformers:": 1, "nr_isomers:": 9}

$$$$
_i3
     RDKit          3D

 46 48  0  0  0  0  0  0  0  0999 V2000
    1.3489    1.9687    0.6187 N   0  0  0  0  0  0  0  0  0  0  0  0
    1.7390    0.6479    0.6705 C   0  0  0  0  0  0  0  0  0  0  0  0
    2.9893    0.3793    0.4690 N   0  0  0  0  0  0  0  0  0  0  0  0
    3.3810   -1.0293    0.5255 C   0  0  0  0  0  0  0  0  0  0  0  0
    4.8791   -1.1409    0.2370 C   0  0  0  0  0  0  0  0  0  0  0  0
    5.2263   -0.7708   -1.2069 C   0  0  0  0  0  0  0  0  0  0  0  0
    6.7140   -0.9313   -1.4785 C   0  0  0  0  0  0  0  0  0  0  0  0
    0.8379   -0.3732    0.9338 N   0  0  0  0  0  0  0  0  0  0  0  0
   -0.4247   -0.0776    1.0983 C   0  0  0  0  0  0  0  0  0  0  0  0
   -1.3697   -1.0342    1.3846 N   0  0  0  0  0  0  0  0  0  0  0  0
   -2.5838   -1.1826    0.6600 C   0  0  0  0  0  0  0  0  0  0  0  0
   -3.6994   -1.6710    1.3522 C   0  0  0  0  0  0  0  0  0  0  0  0
   -4.9098   -1.8999    0.6922 C   0  0  0  0  0  0  0  0  0  0  0  0
   -5.0175   -1.6838   -0.6856 C   0  0  0  0  0  0  0  0  0  0  0  0
   -6.3270   -1.8947   -1.3871 C   0  0  0  0  0  0  0  0  0  0  0  0
   -3.8993   -1.2254   -1.3928 C   0  0  0  0  0  0  0  0  0  0  0  0
   -2.6920   -0.9999   -0.7271 C   0  0  0  0  0  0  0  0  0  0  0  0
   -1.5914   -0.6124   -1.4409 O   0  0  0  0  0  0  0  0  0  0  0  0
   -0.8729    1.2989    1.0708 C   0  0  0  0  0  0  0  0  0  0  0  0
   -2.0678    2.0127    1.2506 C   0  0  0  0  0  0  0  0  0  0  0  0
   -1.8991    3.3389    1.1143 N   0  0  0  0  0  0  0  0  0  0  0  0
   -0.5752    3.4691    0.8490 N   0  0  0  0  0  0  0  0  0  0  0  0
   -0.0258    4.7851    0.6469 C   0  0  0  0  0  0  0  0  0  0  0  0
    0.0588    2.2694    0.8247 C   0  0  0  0  0  0  0  0  0  0  0  0
    2.0958    2.6224    0.4295 H   0  0  0  0  0  0  0  0  0  0  0  0
    3.1928   -1.4337    1.5275 H   0  0  0  0  0  0  0  0  0  0  0  0
    2.8235   -1.6266   -0.2062 H   0  0  0  0  0  0  0  0  0  0  0  0
    5.4381   -0.4970    0.9272 H   0  0  0  0  0  0  0  0  0  0  0  0
    5.1960   -2.1731    0.4298 H   0  0  0  0  0  0  0  0  0  0  0  0
    4.6643   -1.4080   -1.8995 H   0  0  0  0  0  0  0  0  0  0  0  0
    4.9375    0.2660   -1.4130 H   0  0  0  0  0  0  0  0  0  0  0  0
    7.0329   -1.9662   -1.3181 H   0  0  0  0  0  0  0  0  0  0  0  0
    6.9411   -0.6629   -2.5150 H   0  0  0  0  0  0  0  0  0  0  0  0
    7.3045   -0.2837   -0.8226 H   0  0  0  0  0  0  0  0  0  0  0  0
   -0.9015   -1.9377    1.3653 H   0  0  0  0  0  0  0  0  0  0  0  0
   -3.6348   -1.8549    2.4225 H   0  0  0  0  0  0  0  0  0  0  0  0
   -5.7669   -2.2517    1.2630 H   0  0  0  0  0  0  0  0  0  0  0  0
   -6.9127   -2.6784   -0.8952 H   0  0  0  0  0  0  0  0  0  0  0  0
   -6.1683   -2.2108   -2.4235 H   0  0  0  0  0  0  0  0  0  0  0  0
   -6.9061   -0.9661   -1.3845 H   0  0  0  0  0  0  0  0  0  0  0  0
   -3.9769   -1.0592   -2.4637 H   0  0  0  0  0  0  0  0  0  0  0  0
   -1.8389   -0.4863   -2.3709 H   0  0  0  0  0  0  0  0  0  0  0  0
   -3.0561    1.6343    1.4753 H   0  0  0  0  0  0  0  0  0  0  0  0
    1.0363    4.7127    0.4037 H   0  0  0  0  0  0  0  0  0  0  0  0
   -0.5619    5.2599   -0.1788 H   0  0  0  0  0  0  0  0  0  0  0  0
   -0.1577    5.3580    1.5682 H   0  0  0  0  0  0  0  0  0  0  0  0
  1  2  1  0
  2  3  2  3
  3  4  1  0
  4  5  1  0
  5  6  1  0
  6  7  1  0
  2  8  1  0
  8  9  2  0
  9 10  1  0
 10 11  1  0
 11 12  2  0
 12 13  1  0
 13 14  2  0
 14 15  1  0
 14 16  1  0
 16 17  2  0
 17 18  1  0
  9 19  1  0
 19 20  1  0
 20 21  2  0
 21 22  1  0
 22 23  1  0
 22 24  1  0
 24  1  1  0
 17 11  1  0
 24 19  2  0
  1 25  1  0
  4 26  1  0
  4 27  1  0
  5 28  1  0
  5 29  1  0
  6 30  1  0
  6 31  1  0
  7 32  1  0
  7 33  1  0
  7 34  1  0
 10 35  1  0
 12 36  1  0
 13 37  1  0
 15 38  1  0
 15 39  1  0
 15 40  1  0
 16 41  1  0
 18 42  1  0
 20 43  1  0
 23 44  1  0
 23 45  1  0
 23 46  1  0
M  END
>  <ScrubInfo>  (4) 
{"isomerGroup": 0, "isomerId": 3, "confId": 0, "nr_conformers:": 1, "nr_isomers:": 9}

$$$$
_i4
     RDKit          3D

 46 48  0  0  0  0  0  0  0  0999 V2000
   -1.4910    2.7294    1.1006 N   0  0  0  0  0  0  0  0  0  0  0  0
   -1.9693    1.4809    0.7148 C   0  0  0  0  0  0  0  0  0  0  0  0
   -1.0135    0.6598    0.2531 C   0  0  0  0  0  0  0  0  0  0  0  0
   -0.8714   -0.7030   -0.2435 C   0  0  0  0  0  0  0  0  0  0  0  0
   -1.7508   -1.6309   -0.4352 N   0  0  0  0  0  0  0  0  0  0  0  0
   -3.0998   -1.4003   -0.1372 C   0  0  0  0  0  0  0  0  0  0  0  0
   -3.6103   -1.6393    1.1383 C   0  0  0  0  0  0  0  0  0  0  0  0
   -4.9616   -1.4001    1.4099 C   0  0  0  0  0  0  0  0  0  0  0  0
   -5.8184   -0.9234    0.4060 C   0  0  0  0  0  0  0  0  0  0  0  0
   -7.2747   -0.7040    0.6921 C   0  0  0  0  0  0  0  0  0  0  0  0
   -5.3150   -0.7249   -0.8857 C   0  0  0  0  0  0  0  0  0  0  0  0
   -3.9721   -0.9725   -1.1441 C   0  0  0  0  0  0  0  0  0  0  0  0
   -3.5017   -0.7985   -2.4180 O   0  0  0  0  0  0  0  0  0  0  0  0
    0.4146   -1.0491   -0.5606 N   0  0  0  0  0  0  0  0  0  0  0  0
    1.4220   -0.2346   -0.4468 C   0  0  0  0  0  0  0  0  0  0  0  0
    2.6400   -0.7380   -0.7995 N   0  0  0  0  0  0  0  0  0  0  0  0
    3.8873   -0.1840   -0.3215 C   0  0  0  0  0  0  0  0  0  0  0  0
    5.0597   -0.9130   -0.9769 C   0  0  0  0  0  0  0  0  0  0  0  0
    6.3996   -0.3498   -0.5053 C   0  0  0  0  0  0  0  0  0  0  0  0
    7.5681   -1.0738   -1.1550 C   0  0  0  0  0  0  0  0  0  0  0  0
    1.3500    1.0603   -0.0099 N   0  0  0  0  0  0  0  0  0  0  0  0
    0.1881    1.5142    0.3056 C   0  0  0  0  0  0  0  0  0  0  0  0
   -0.1542    2.7957    0.7381 N   0  0  0  0  0  0  0  0  0  0  0  0
    0.7592    3.5869    1.5386 C   0  0  0  0  0  0  0  0  0  0  0  0
   -2.0821    3.5001    0.7790 H   0  0  0  0  0  0  0  0  0  0  0  0
   -3.0280    1.2900    0.8117 H   0  0  0  0  0  0  0  0  0  0  0  0
   -2.9562   -2.0150    1.9201 H   0  0  0  0  0  0  0  0  0  0  0  0
   -5.3434   -1.5956    2.4098 H   0  0  0  0  0  0  0  0  0  0  0  0
   -7.6818    0.0904    0.0577 H   0  0  0  0  0  0  0  0  0  0  0  0
   -7.4258   -0.3977    1.7326 H   0  0  0  0  0  0  0  0  0  0  0  0
   -7.8352   -1.6258    0.5091 H   0  0  0  0  0  0  0  0  0  0  0  0
   -5.9618   -0.3939   -1.6934 H   0  0  0  0  0  0  0  0  0  0  0  0
   -2.6041   -1.1917   -2.4034 H   0  0  0  0  0  0  0  0  0  0  0  0
    2.6064   -1.7454   -0.9037 H   0  0  0  0  0  0  0  0  0  0  0  0
    3.9433   -0.2899    0.7680 H   0  0  0  0  0  0  0  0  0  0  0  0
    3.9435    0.8841   -0.5616 H   0  0  0  0  0  0  0  0  0  0  0  0
    4.9842   -0.8254   -2.0682 H   0  0  0  0  0  0  0  0  0  0  0  0
    5.0064   -1.9838   -0.7430 H   0  0  0  0  0  0  0  0  0  0  0  0
    6.4799   -0.4427    0.5840 H   0  0  0  0  0  0  0  0  0  0  0  0
    6.4602    0.7181   -0.7454 H   0  0  0  0  0  0  0  0  0  0  0  0
    7.5351   -0.9730   -2.2445 H   0  0  0  0  0  0  0  0  0  0  0  0
    7.5554   -2.1401   -0.9077 H   0  0  0  0  0  0  0  0  0  0  0  0
    8.5162   -0.6549   -0.8036 H   0  0  0  0  0  0  0  0  0  0  0  0
    0.9250    3.1203    2.5152 H   0  0  0  0  0  0  0  0  0  0  0  0
    0.3543    4.5917    1.6974 H   0  0  0  0  0  0  0  0  0  0  0  0
    1.7240    3.6920    1.0322 H   0  0  0  0  0  0  0  0  0  0  0  0
  1  2  1  0
  2  3  2  0
  3  4  1  0
  4  5  2  3
  5  6  1  0
  6  7  2  0
  7  8  1  0
  8  9  2  0
  9 10  1  0
  9 11  1  0
 11 12  2  0
 12 13  1  0
  4 14  1  0
 14 15  2  0
 15 16  1  0
 16 17  1  0
 17 18  1  0
 18 19  1  0
 19 20  1  0
 15 21  1  0
 21 22  2  0
 22 23  1  0
 23 24  1  0
 23  1  1  0
 22  3  1  0
 12  6  1  0
  1 25  1  0
  2 26  1  0
  7 27  1  0
  8 28  1  0
 10 29  1  0
 10 30  1  0
 10 31  1  0
 11 32  1  0
 13 33  1  0
 16 34  1  0
 17 35  1  0
 17 36  1  0
 18 37  1  0
 18 38  1  0
 19 39  1  0
 19 40  1  0
 20 41  1  0
 20 42  1  0
 20 43  1  0
 24 44  1  0
 24 45  1  0
 24 46  1  0
M  END
>  <ScrubInfo>  (5) 
{"isomerGroup": 0, "isomerId": 4, "confId": 0, "nr_conformers:": 1, "nr_isomers:": 9}

$$$$
_i5
     RDKit          3D

 46 48  0  0  0  0  0  0  0  0999 V2000
    1.6011   -1.4594    0.1340 N   0  0  0  0  0  0  0  0  0  0  0  0
    1.7861   -0.1332    0.4334 C   0  0  0  0  0  0  0  0  0  0  0  0
    3.0911    0.2661    0.5067 N   0  0  0  0  0  0  0  0  0  0  0  0
    3.9853    0.1025   -0.6338 C   0  0  0  0  0  0  0  0  0  0  0  0
    5.4097    0.5297   -0.2742 C   0  0  0  0  0  0  0  0  0  0  0  0
    5.5896    2.0121    0.0690 C   0  0  0  0  0  0  0  0  0  0  0  0
    5.1898    2.9529   -1.0566 C   0  0  0  0  0  0  0  0  0  0  0  0
    0.8428    0.7316    0.6706 N   0  0  0  0  0  0  0  0  0  0  0  0
   -0.4907    0.3395    0.5880 C   0  0  0  0  0  0  0  0  0  0  0  0
   -1.3661    1.2807    0.7415 N   0  0  0  0  0  0  0  0  0  0  0  0
   -2.7410    1.0500    0.6290 C   0  0  0  0  0  0  0  0  0  0  0  0
   -3.5196    1.0298    1.7886 C   0  0  0  0  0  0  0  0  0  0  0  0
   -4.9028    0.8430    1.7164 C   0  0  0  0  0  0  0  0  0  0  0  0
   -5.5328    0.6781    0.4768 C   0  0  0  0  0  0  0  0  0  0  0  0
   -7.0219    0.5110    0.4003 C   0  0  0  0  0  0  0  0  0  0  0  0
   -4.7641    0.7342   -0.6933 C   0  0  0  0  0  0  0  0  0  0  0  0
   -3.3821    0.9204   -0.6130 C   0  0  0  0  0  0  0  0  0  0  0  0
   -2.6310    0.9557   -1.7586 O   0  0  0  0  0  0  0  0  0  0  0  0
   -0.7344   -1.0778    0.3667 C   0  0  0  0  0  0  0  0  0  0  0  0
   -1.8348   -1.9538    0.3378 C   0  0  0  0  0  0  0  0  0  0  0  0
   -1.4826   -3.2304    0.1099 N   0  0  0  0  0  0  0  0  0  0  0  0
   -0.1366   -3.1729   -0.0072 N   0  0  0  0  0  0  0  0  0  0  0  0
    0.5975   -4.3859   -0.2608 C   0  0  0  0  0  0  0  0  0  0  0  0
    0.3351   -1.9094    0.1473 C   0  0  0  0  0  0  0  0  0  0  0  0
    2.4130   -2.0567    0.2052 H   0  0  0  0  0  0  0  0  0  0  0  0
    3.0749    1.2419    0.8024 H   0  0  0  0  0  0  0  0  0  0  0  0
    3.6085    0.6711   -1.4907 H   0  0  0  0  0  0  0  0  0  0  0  0
    4.0155   -0.9508   -0.9354 H   0  0  0  0  0  0  0  0  0  0  0  0
    5.7592   -0.0658    0.5788 H   0  0  0  0  0  0  0  0  0  0  0  0
    6.0676    0.2831   -1.1170 H   0  0  0  0  0  0  0  0  0  0  0  0
    6.6469    2.1827    0.3058 H   0  0  0  0  0  0  0  0  0  0  0  0
    5.0270    2.2663    0.9741 H   0  0  0  0  0  0  0  0  0  0  0  0
    5.7110    2.6998   -1.9851 H   0  0  0  0  0  0  0  0  0  0  0  0
    4.1122    2.9201   -1.2424 H   0  0  0  0  0  0  0  0  0  0  0  0
    5.4478    3.9838   -0.7934 H   0  0  0  0  0  0  0  0  0  0  0  0
   -3.0407    1.1690    2.7544 H   0  0  0  0  0  0  0  0  0  0  0  0
   -5.4838    0.8341    2.6361 H   0  0  0  0  0  0  0  0  0  0  0  0
   -7.4039   -0.0006    1.2900 H   0  0  0  0  0  0  0  0  0  0  0  0
   -7.3025   -0.0950   -0.4676 H   0  0  0  0  0  0  0  0  0  0  0  0
   -7.5046    1.4898    0.3201 H   0  0  0  0  0  0  0  0  0  0  0  0
   -5.2498    0.6277   -1.6589 H   0  0  0  0  0  0  0  0  0  0  0  0
   -3.2265    0.9808   -2.5231 H   0  0  0  0  0  0  0  0  0  0  0  0
   -2.8841   -1.7377    0.4826 H   0  0  0  0  0  0  0  0  0  0  0  0
    1.6287   -4.1469   -0.5295 H   0  0  0  0  0  0  0  0  0  0  0  0
    0.1189   -4.9174   -1.0875 H   0  0  0  0  0  0  0  0  0  0  0  0
    0.5771   -4.9939    0.6470 H   0  0  0  0  0  0  0  0  0  0  0  0
  1  2  1  0
  2  3  1  0
  3  4  1  0
  4  5  1  0
  5  6  1  0
  6  7  1  0
  2  8  2  0
  8  9  1  0
  9 10  2  3
 10 11  1  0
 11 12  2  0
 12 13  1  0
 13 14  2  0
 14 15  1  0
 14 16  1  0
 16 17  2  0
 17 18  1  0
  9 19  1  0
 19 20  1  0
 20 21  2  0
 21 22  1  0
 22 23  1  0
 22 24  1  0
 24  1  1  0
 17 11  1  0
 24 19  2  0
  1 25  1  0
  3 26  1  0
  4 27  1  0
  4 28  1  0
  5 29  1  0
  5 30  1  0
  6 31  1  0
  6 32  1  0
  7 33  1  0
  7 34  1  0
  7 35  1  0
 12 36  1  0
 13 37  1  0
 15 38  1  0
 15 39  1  0
 15 40  1  0
 16 41  1  0
 18 42  1  0
 20 43  1  0
 23 44  1  0
 23 45  1  0
 23 46  1  0
M  END
>  <ScrubInfo>  (6) 
{"isomerGroup": 0, "isomerId": 5, "confId": 0, "nr_conformers:": 1, "nr_isomers:": 9}

$$$$
_i6
     RDKit          3D

 46 48  0  0  0  0  0  0  0  0999 V2000
    0.3022    3.8267   -2.6294 N   0  0  0  0  0  0  0  0  0  0  0  0
   -0.7022    2.9259   -2.2928 C   0  0  0  0  0  0  0  0  0  0  0  0
   -0.3487    2.0962   -1.3010 C   0  0  0  0  0  0  0  0  0  0  0  0
   -0.9210    0.9711   -0.5546 C   0  0  0  0  0  0  0  0  0  0  0  0
   -2.2162    0.5766   -0.8112 N   0  0  0  0  0  0  0  0  0  0  0  0
   -2.9927   -0.5005   -0.3286 C   0  0  0  0  0  0  0  0  0  0  0  0
   -4.3881   -0.3971   -0.5220 C   0  0  0  0  0  0  0  0  0  0  0  0
   -5.2781   -1.3881   -0.0906 C   0  0  0  0  0  0  0  0  0  0  0  0
   -4.8000   -2.5298    0.5480 C   0  0  0  0  0  0  0  0  0  0  0  0
   -5.7400   -3.5868    1.0430 C   0  0  0  0  0  0  0  0  0  0  0  0
   -3.4264   -2.6405    0.7726 C   0  0  0  0  0  0  0  0  0  0  0  0
   -2.5402   -1.6407    0.3492 C   0  0  0  0  0  0  0  0  0  0  0  0
   -1.2311   -1.9140    0.6234 O   0  0  0  0  0  0  0  0  0  0  0  0
   -0.1604    0.4071    0.3386 N   0  0  0  0  0  0  0  0  0  0  0  0
    1.1260    0.8647    0.5374 C   0  0  0  0  0  0  0  0  0  0  0  0
    1.7886    0.1468    1.3695 N   0  0  0  0  0  0  0  0  0  0  0  0
    3.1669    0.5015    1.6933 C   0  0  0  0  0  0  0  0  0  0  0  0
    4.1435   -0.1642    0.7225 C   0  0  0  0  0  0  0  0  0  0  0  0
    4.0604   -1.6930    0.6708 C   0  0  0  0  0  0  0  0  0  0  0  0
    4.3879   -2.3656    1.9947 C   0  0  0  0  0  0  0  0  0  0  0  0
    1.7151    1.9540   -0.0572 N   0  0  0  0  0  0  0  0  0  0  0  0
    1.0082    2.5625   -0.9429 C   0  0  0  0  0  0  0  0  0  0  0  0
    1.3313    3.6847   -1.7056 N   0  0  0  0  0  0  0  0  0  0  0  0
    2.6986    3.9322   -2.1242 C   0  0  0  0  0  0  0  0  0  0  0  0
   -0.0313    4.7810   -2.7868 H   0  0  0  0  0  0  0  0  0  0  0  0
   -1.6362    2.9674   -2.8334 H   0  0  0  0  0  0  0  0  0  0  0  0
   -2.7279    1.1430   -1.4751 H   0  0  0  0  0  0  0  0  0  0  0  0
   -4.8105    0.4764   -1.0141 H   0  0  0  0  0  0  0  0  0  0  0  0
   -6.3448   -1.2580   -0.2582 H   0  0  0  0  0  0  0  0  0  0  0  0
   -6.6348   -3.6398    0.4139 H   0  0  0  0  0  0  0  0  0  0  0  0
   -6.0436   -3.3666    2.0710 H   0  0  0  0  0  0  0  0  0  0  0  0
   -5.2664   -4.5739    1.0169 H   0  0  0  0  0  0  0  0  0  0  0  0
   -3.0232   -3.5109    1.2866 H   0  0  0  0  0  0  0  0  0  0  0  0
   -0.7323   -1.0696    0.6047 H   0  0  0  0  0  0  0  0  0  0  0  0
    3.3727    0.1729    2.7179 H   0  0  0  0  0  0  0  0  0  0  0  0
    3.3299    1.5861    1.7058 H   0  0  0  0  0  0  0  0  0  0  0  0
    5.1642    0.1301    0.9955 H   0  0  0  0  0  0  0  0  0  0  0  0
    3.9692    0.2213   -0.2895 H   0  0  0  0  0  0  0  0  0  0  0  0
    3.0650   -2.0086    0.3381 H   0  0  0  0  0  0  0  0  0  0  0  0
    4.7694   -2.0506   -0.0857 H   0  0  0  0  0  0  0  0  0  0  0  0
    5.3654   -2.0444    2.3679 H   0  0  0  0  0  0  0  0  0  0  0  0
    3.6347   -2.1413    2.7556 H   0  0  0  0  0  0  0  0  0  0  0  0
    4.4147   -3.4526    1.8668 H   0  0  0  0  0  0  0  0  0  0  0  0
    3.0420    3.1522   -2.8117 H   0  0  0  0  0  0  0  0  0  0  0  0
    2.7720    4.9000   -2.6307 H   0  0  0  0  0  0  0  0  0  0  0  0
    3.3681    3.9563   -1.2584 H   0  0  0  0  0  0  0  0  0  0  0  0
  1  2  1  0
  2  3  2  0
  3  4  1  0
  4  5  1  0
  5  6  1  0
  6  7  2  0
  7  8  1  0
  8  9  2  0
  9 10  1  0
  9 11  1  0
 11 12  2  0
 12 13  1  0
  4 14  2  0
 14 15  1  0
 15 16  2  3
 16 17  1  0
 17 18  1  0
 18 19  1  0
 19 20  1  0
 15 21  1  0
 21 22  2  0
 22 23  1  0
 23 24  1  0
 23  1  1  0
 22  3  1  0
 12  6  1  0
  1 25  1  0
  2 26  1  0
  5 27  1  0
  7 28  1  0
  8 29  1  0
 10 30  1  0
 10 31  1  0
 10 32  1  0
 11 33  1  0
 13 34  1  0
 17 35  1  0
 17 36  1  0
 18 37  1  0
 18 38  1  0
 19 39  1  0
 19 40  1  0
 20 41  1  0
 20 42  1  0
 20 43  1  0
 24 44  1  0
 24 45  1  0
 24 46  1  0
M  END
>  <ScrubInfo>  (7) 
{"isomerGroup": 0, "isomerId": 6, "confId": 0, "nr_conformers:": 1, "nr_isomers:": 9}

$$$$
_i7
     RDKit          3D

 46 48  0  0  0  0  0  0  0  0999 V2000
    0.4100    3.3530   -3.4414 N   0  0  0  0  0  0  0  0  0  0  0  0
   -0.6685    2.5735   -3.0374 C   0  0  0  0  0  0  0  0  0  0  0  0
   -0.3849    1.7954   -1.9864 C   0  0  0  0  0  0  0  0  0  0  0  0
   -1.0766    0.8278   -1.1306 C   0  0  0  0  0  0  0  0  0  0  0  0
   -2.3130    0.5266   -1.3921 N   0  0  0  0  0  0  0  0  0  0  0  0
   -2.9937   -0.4015   -0.5833 C   0  0  0  0  0  0  0  0  0  0  0  0
   -3.4368   -1.5878   -1.1720 C   0  0  0  0  0  0  0  0  0  0  0  0
   -4.1495   -2.5346   -0.4302 C   0  0  0  0  0  0  0  0  0  0  0  0
   -4.4516   -2.2999    0.9163 C   0  0  0  0  0  0  0  0  0  0  0  0
   -5.1862   -3.3327    1.7195 C   0  0  0  0  0  0  0  0  0  0  0  0
   -4.0121   -1.1136    1.5170 C   0  0  0  0  0  0  0  0  0  0  0  0
   -3.3005   -0.1733    0.7680 C   0  0  0  0  0  0  0  0  0  0  0  0
   -2.8659    0.9796    1.3681 O   0  0  0  0  0  0  0  0  0  0  0  0
   -0.2633    0.3564   -0.1321 N   0  0  0  0  0  0  0  0  0  0  0  0
    1.0345    0.7179    0.1109 C   0  0  0  0  0  0  0  0  0  0  0  0
    1.6206    0.2164    1.1483 N   0  0  0  0  0  0  0  0  0  0  0  0
    3.0061    0.5906    1.4315 C   0  0  0  0  0  0  0  0  0  0  0  0
    3.9809   -0.3547    0.7279 C   0  0  0  0  0  0  0  0  0  0  0  0
    3.8232   -1.8338    1.0944 C   0  0  0  0  0  0  0  0  0  0  0  0
    4.0739   -2.1266    2.5654 C   0  0  0  0  0  0  0  0  0  0  0  0
    1.7161    1.5835   -0.7221 N   0  0  0  0  0  0  0  0  0  0  0  0
    1.0579    2.0866   -1.7198 C   0  0  0  0  0  0  0  0  0  0  0  0
    1.5257    2.9684   -2.6992 N   0  0  0  0  0  0  0  0  0  0  0  0
    2.5363    3.9598   -2.3845 C   0  0  0  0  0  0  0  0  0  0  0  0
    0.5319    3.3751   -4.4562 H   0  0  0  0  0  0  0  0  0  0  0  0
   -1.6083    2.6390   -3.5673 H   0  0  0  0  0  0  0  0  0  0  0  0
   -3.2239   -1.7735   -2.2216 H   0  0  0  0  0  0  0  0  0  0  0  0
   -4.4712   -3.4536   -0.9156 H   0  0  0  0  0  0  0  0  0  0  0  0
   -5.7853   -2.8618    2.5060 H   0  0  0  0  0  0  0  0  0  0  0  0
   -5.8733   -3.9042    1.0867 H   0  0  0  0  0  0  0  0  0  0  0  0
   -4.4739   -4.0228    2.1820 H   0  0  0  0  0  0  0  0  0  0  0  0
   -4.2237   -0.9352    2.5675 H   0  0  0  0  0  0  0  0  0  0  0  0
   -3.3297    1.0857    2.2144 H   0  0  0  0  0  0  0  0  0  0  0  0
   -0.6697   -0.2384    0.5729 H   0  0  0  0  0  0  0  0  0  0  0  0
    3.1555    0.5463    2.5159 H   0  0  0  0  0  0  0  0  0  0  0  0
    3.2249    1.6300    1.1583 H   0  0  0  0  0  0  0  0  0  0  0  0
    5.0051   -0.0361    0.9574 H   0  0  0  0  0  0  0  0  0  0  0  0
    3.8613   -0.2578   -0.3581 H   0  0  0  0  0  0  0  0  0  0  0  0
    2.8246   -2.1899    0.8169 H   0  0  0  0  0  0  0  0  0  0  0  0
    4.5377   -2.4139    0.4979 H   0  0  0  0  0  0  0  0  0  0  0  0
    5.0536   -1.7530    2.8795 H   0  0  0  0  0  0  0  0  0  0  0  0
    3.3086   -1.6717    3.2010 H   0  0  0  0  0  0  0  0  0  0  0  0
    4.0508   -3.2067    2.7423 H   0  0  0  0  0  0  0  0  0  0  0  0
    3.4275    3.4824   -1.9645 H   0  0  0  0  0  0  0  0  0  0  0  0
    2.1549    4.6884   -1.6615 H   0  0  0  0  0  0  0  0  0  0  0  0
    2.8399    4.4947   -3.2902 H   0  0  0  0  0  0  0  0  0  0  0  0
  1  2  1  0
  2  3  2  0
  3  4  1  0
  4  5  2  3
  5  6  1  0
  6  7  2  0
  7  8  1  0
  8  9  2  0
  9 10  1  0
  9 11  1  0
 11 12  2  0
 12 13  1  0
  4 14  1  0
 14 15  1  0
 15 16  2  3
 16 17  1  0
 17 18  1  0
 18 19  1  0
 19 20  1  0
 15 21  1  0
 21 22  2  0
 22 23  1  0
 23 24  1  0
 23  1  1  0
 22  3  1  0
 12  6  1  0
  1 25  1  0
  2 26  1  0
  7 27  1  0
  8 28  1  0
 10 29  1  0
 10 30  1  0
 10 31  1  0
 11 32  1  0
 13 33  1  0
 14 34  1  0
 17 35  1  0
 17 36  1  0
 18 37  1  0
 18 38  1  0
 19 39  1  0
 19 40  1  0
 20 41  1  0
 20 42  1  0
 20 43  1  0
 24 44  1  0
 24 45  1  0
 24 46  1  0
M  END
>  <ScrubInfo>  (8) 
{"isomerGroup": 0, "isomerId": 7, "confId": 0, "nr_conformers:": 1, "nr_isomers:": 9}

$$$$
_i8
     RDKit          3D

 46 48  0  0  0  0  0  0  0  0999 V2000
    1.4862    1.4245    0.7596 N   0  0  0  0  0  0  0  0  0  0  0  0
    1.8538    0.1333    0.4410 C   0  0  0  0  0  0  0  0  0  0  0  0
    3.1125   -0.1523    0.4110 N   0  0  0  0  0  0  0  0  0  0  0  0
    3.4993   -1.5188    0.0707 C   0  0  0  0  0  0  0  0  0  0  0  0
    5.0243   -1.6269    0.0878 C   0  0  0  0  0  0  0  0  0  0  0  0
    5.6811   -0.8210   -1.0354 C   0  0  0  0  0  0  0  0  0  0  0  0
    7.1934   -0.9801   -1.0215 C   0  0  0  0  0  0  0  0  0  0  0  0
    0.7776   -0.6959    0.1927 N   0  0  0  0  0  0  0  0  0  0  0  0
   -0.5817   -0.4480    0.1941 C   0  0  0  0  0  0  0  0  0  0  0  0
   -1.4225   -1.3977   -0.0872 N   0  0  0  0  0  0  0  0  0  0  0  0
   -2.8018   -1.1691   -0.1602 C   0  0  0  0  0  0  0  0  0  0  0  0
   -3.6145   -1.5526    0.9089 C   0  0  0  0  0  0  0  0  0  0  0  0
   -4.9990   -1.3700    0.8517 C   0  0  0  0  0  0  0  0  0  0  0  0
   -5.5965   -0.8230   -0.2908 C   0  0  0  0  0  0  0  0  0  0  0  0
   -7.0792   -0.5960   -0.3351 C   0  0  0  0  0  0  0  0  0  0  0  0
   -4.7882   -0.4428   -1.3704 C   0  0  0  0  0  0  0  0  0  0  0  0
   -3.4056   -0.6273   -1.3057 C   0  0  0  0  0  0  0  0  0  0  0  0
   -2.6150   -0.2555   -2.3618 O   0  0  0  0  0  0  0  0  0  0  0  0
   -0.8627    0.9323    0.5528 C   0  0  0  0  0  0  0  0  0  0  0  0
   -1.9969    1.7393    0.7595 C   0  0  0  0  0  0  0  0  0  0  0  0
   -1.6877    2.9985    1.1066 N   0  0  0  0  0  0  0  0  0  0  0  0
   -0.3362    3.0042    1.1182 N   0  0  0  0  0  0  0  0  0  0  0  0
    0.3607    4.2181    1.4610 C   0  0  0  0  0  0  0  0  0  0  0  0
    0.1873    1.7872    0.8098 C   0  0  0  0  0  0  0  0  0  0  0  0
    2.2655    2.0435    0.9481 H   0  0  0  0  0  0  0  0  0  0  0  0
    3.0934   -2.2190    0.8105 H   0  0  0  0  0  0  0  0  0  0  0  0
    3.1217   -1.7991   -0.9198 H   0  0  0  0  0  0  0  0  0  0  0  0
    5.4087   -1.2879    1.0578 H   0  0  0  0  0  0  0  0  0  0  0  0
    5.3010   -2.6830   -0.0181 H   0  0  0  0  0  0  0  0  0  0  0  0
    5.2942   -1.1526   -2.0060 H   0  0  0  0  0  0  0  0  0  0  0  0
    5.4348    0.2419   -0.9339 H   0  0  0  0  0  0  0  0  0  0  0  0
    7.6160   -0.6284   -0.0748 H   0  0  0  0  0  0  0  0  0  0  0  0
    7.4792   -2.0280   -1.1577 H   0  0  0  0  0  0  0  0  0  0  0  0
    7.6432   -0.3975   -1.8316 H   0  0  0  0  0  0  0  0  0  0  0  0
    0.9860   -1.6469   -0.0656 H   0  0  0  0  0  0  0  0  0  0  0  0
   -3.1633   -1.9950    1.7929 H   0  0  0  0  0  0  0  0  0  0  0  0
   -5.6073   -1.6642    1.7044 H   0  0  0  0  0  0  0  0  0  0  0  0
   -7.6072   -1.3424    0.2675 H   0  0  0  0  0  0  0  0  0  0  0  0
   -7.4566   -0.6803   -1.3596 H   0  0  0  0  0  0  0  0  0  0  0  0
   -7.3162    0.4010    0.0489 H   0  0  0  0  0  0  0  0  0  0  0  0
   -5.2449   -0.0044   -2.2530 H   0  0  0  0  0  0  0  0  0  0  0  0
   -3.1823    0.0493   -3.0868 H   0  0  0  0  0  0  0  0  0  0  0  0
   -3.0437    1.4806    0.6835 H   0  0  0  0  0  0  0  0  0  0  0  0
    1.3574    4.2066    1.0141 H   0  0  0  0  0  0  0  0  0  0  0  0
   -0.2001    5.0720    1.0718 H   0  0  0  0  0  0  0  0  0  0  0  0
    0.4318    4.2735    2.5498 H   0  0  0  0  0  0  0  0  0  0  0  0
  1  2  1  0
  2  3  2  3
  3  4  1  0
  4  5  1  0
  5  6  1  0
  6  7  1  0
  2  8  1  0
  8  9  1  0
  9 10  2  3
 10 11  1  0
 11 12  2  0
 12 13  1  0
 13 14  2  0
 14 15  1  0
 14 16  1  0
 16 17  2  0
 17 18  1  0
  9 19  1  0
 19 20  1  0
 20 21  2  0
 21 22  1  0
 22 23  1  0
 22 24  1  0
 24  1  1  0
 17 11  1  0
 24 19  2  0
  1 25  1  0
  4 26  1  0
  4 27  1  0
  5 28  1  0
  5 29  1  0
  6 30  1  0
  6 31  1  0
  7 32  1  0
  7 33  1  0
  7 34  1  0
  8 35  1  0
 12 36  1  0
 13 37  1  0
 15 38  1  0
 15 39  1  0
 15 40  1  0
 16 41  1  0
 18 42  1  0
 20 43  1  0
 23 44  1  0
 23 45  1  0
 23 46  1  0
M  END
>  <ScrubInfo>  (9) 
{"isomerGroup": 0, "isomerId": 8, "confId": 0, "nr_conformers:": 1, "nr_isomers:": 9}

$$$$
