REMARK SMILES CCCCNc1nc(Nc2ccc(C)cc2O)c2cnn(C)c2n1
REMARK SMILES IDX 6 1 7 2 8 3 18 4 19 5 20 6 21 7 22 8 23 9 24 10 5 11 4 13
REMARK SMILES IDX 3 14 2 15 1 16 9 17 10 19 11 20 16 21 12 22 15 23 13 24
REMARK SMILES IDX 14 25 17 26
REMARK H PARENT 5 12 9 18 17 27
ROOT
ATOM      1  C   UNL     1       1.035  -0.016   0.317  1.00  0.00     0.226 A 
ATOM      2  N   UNL     1      -0.306   0.004   0.167  1.00  0.00    -0.195 NA
ATOM      3  C   UNL     1      -1.053  -1.108   0.396  1.00  0.00     0.147 A 
ATOM      4  C   UNL     1      -0.364  -2.258   0.803  1.00  0.00     0.082 A 
ATOM      5  C   UNL     1      -0.652  -3.594   1.153  1.00  0.00     0.149 A 
ATOM      6  N   UNL     1       0.440  -4.297   1.472  1.00  0.00    -0.179 NA
ATOM      7  N   UNL     1       1.440  -3.396   1.330  1.00  0.00    -0.250 N 
ATOM      8  C   UNL     1       2.798  -3.792   1.603  1.00  0.00     0.176 C 
ATOM      9  C   UNL     1       1.008  -2.163   0.924  1.00  0.00     0.165 A 
ATOM     10  N   UNL     1       1.757  -1.078   0.690  1.00  0.00    -0.193 NA
ENDROOT
BRANCH   1  11
ATOM     11  N   UNL     1       1.656   1.196   0.054  1.00  0.00    -0.354 N 
ATOM     12  H   UNL     1       0.997   1.754  -0.478  1.00  0.00     0.163 HD
BRANCH  11  13
ATOM     13  C   UNL     1       2.996   1.130  -0.505  1.00  0.00     0.116 C 
BRANCH  13  14
ATOM     14  C   UNL     1       4.047   1.212   0.605  1.00  0.00     0.021 C 
BRANCH  14  15
ATOM     15  C   UNL     1       5.481   1.054   0.093  1.00  0.00    -0.002 C 
ATOM     16  C   UNL     1       5.925   2.177  -0.831  1.00  0.00     0.004 C 
ENDBRANCH  14  15
ENDBRANCH  13  14
ENDBRANCH  11  13
ENDBRANCH   1  11
BRANCH   3  17
ATOM     17  N   UNL     1      -2.444  -1.105   0.228  1.00  0.00    -0.336 N 
ATOM     18  H   UNL     1      -2.850  -2.012   0.420  1.00  0.00     0.168 HD
BRANCH  17  19
ATOM     19  C   UNL     1      -3.411  -0.160  -0.178  1.00  0.00     0.082 A 
ATOM     20  C   UNL     1      -4.724  -0.646  -0.362  1.00  0.00     0.030 A 
ATOM     21  C   UNL     1      -3.213   1.204  -0.433  1.00  0.00     0.139 A 
ATOM     22  C   UNL     1      -5.776   0.180  -0.778  1.00  0.00     0.006 A 
ATOM     23  C   UNL     1      -4.261   2.036  -0.850  1.00  0.00     0.051 A 
ATOM     24  C   UNL     1      -5.548   1.529  -1.038  1.00  0.00    -0.047 A 
ATOM     25  C   UNL     1      -6.670   2.433  -1.450  1.00  0.00     0.044 C 
BRANCH  21  26
ATOM     26  O   UNL     1      -2.017   1.847  -0.286  1.00  0.00    -0.506 OA
ATOM     27  H   UNL     1      -1.373   1.165  -0.006  1.00  0.00     0.293 HD
ENDBRANCH  21  26
ENDBRANCH  17  19
ENDBRANCH   3  17
TORSDOF 7
