_i0
     RDKit          3D

 41 43  0  0  0  0  0  0  0  0999 V2000
   -1.4113   -3.7512   -1.5724 C   0  0  0  0  0  0  0  0  0  0  0  0
   -0.3638   -2.9132   -1.0458 N   0  0  0  0  0  0  0  0  0  0  0  0
    0.9250   -3.3134   -1.1504 N   0  0  0  0  0  0  0  0  0  0  0  0
    1.6017   -2.3199   -0.5621 C   0  0  0  0  0  0  0  0  0  0  0  0
    0.7637   -1.2836   -0.1018 C   0  0  0  0  0  0  0  0  0  0  0  0
    0.8754   -0.0546    0.5510 C   0  0  0  0  0  0  0  0  0  0  0  0
    2.0801    0.5357    0.9638 N   0  0  0  0  0  0  0  0  0  0  0  0
    3.2761    0.6793    0.2321 C   0  0  0  0  0  0  0  0  0  0  0  0
    3.3324    0.6201   -1.1655 C   0  0  0  0  0  0  0  0  0  0  0  0
    4.5448    0.7980   -1.8422 C   0  0  0  0  0  0  0  0  0  0  0  0
    5.7181    1.0517   -1.1276 C   0  0  0  0  0  0  0  0  0  0  0  0
    6.9600    1.2356   -1.8196 C   0  0  0  0  0  0  0  0  0  0  0  0
    7.9658    1.3863   -2.3786 N   0  0  0  0  0  0  0  0  0  0  0  0
    5.6706    1.1331    0.2659 C   0  0  0  0  0  0  0  0  0  0  0  0
    4.4561    0.9548    0.9364 C   0  0  0  0  0  0  0  0  0  0  0  0
   -0.2694    0.6019    0.8659 N   0  0  0  0  0  0  0  0  0  0  0  0
   -1.4622    0.0923    0.5048 C   0  0  0  0  0  0  0  0  0  0  0  0
   -2.5541    0.8791    0.8579 N   0  0  0  0  0  0  0  0  0  0  0  0
   -3.7378    0.1305    1.2466 C   0  0  0  0  0  0  0  0  0  0  0  0
   -4.8513    1.0870    1.6630 C   0  0  0  0  0  0  0  0  0  0  0  0
   -5.3666    1.9212    0.4987 C   0  0  0  0  0  0  0  0  0  0  0  0
   -6.4508    2.7213    0.9573 O   0  0  0  0  0  0  0  0  0  0  0  0
   -1.6562   -1.0632   -0.1454 N   0  0  0  0  0  0  0  0  0  0  0  0
   -0.5119   -1.7084   -0.4146 C   0  0  0  0  0  0  0  0  0  0  0  0
   -2.3822   -3.2713   -1.4305 H   0  0  0  0  0  0  0  0  0  0  0  0
   -1.3877   -4.7055   -1.0401 H   0  0  0  0  0  0  0  0  0  0  0  0
   -1.2267   -3.9036   -2.6388 H   0  0  0  0  0  0  0  0  0  0  0  0
    2.6798   -2.3901   -0.4937 H   0  0  0  0  0  0  0  0  0  0  0  0
    1.8351    1.4053    1.4341 H   0  0  0  0  0  0  0  0  0  0  0  0
    2.4327    0.4542   -1.7536 H   0  0  0  0  0  0  0  0  0  0  0  0
    4.5603    0.7438   -2.9295 H   0  0  0  0  0  0  0  0  0  0  0  0
    6.5730    1.3347    0.8401 H   0  0  0  0  0  0  0  0  0  0  0  0
    4.4368    1.0170    2.0229 H   0  0  0  0  0  0  0  0  0  0  0  0
   -2.2039    1.5235    1.5606 H   0  0  0  0  0  0  0  0  0  0  0  0
   -4.0967   -0.4985    0.4225 H   0  0  0  0  0  0  0  0  0  0  0  0
   -3.5037   -0.5249    2.0950 H   0  0  0  0  0  0  0  0  0  0  0  0
   -5.6841    0.5107    2.0853 H   0  0  0  0  0  0  0  0  0  0  0  0
   -4.5101    1.7517    2.4668 H   0  0  0  0  0  0  0  0  0  0  0  0
   -5.7290    1.2818   -0.3125 H   0  0  0  0  0  0  0  0  0  0  0  0
   -4.5891    2.5858    0.1096 H   0  0  0  0  0  0  0  0  0  0  0  0
   -6.7384    3.2652    0.2036 H   0  0  0  0  0  0  0  0  0  0  0  0
  1  2  1  0
  2  3  1  0
  3  4  2  0
  4  5  1  0
  5  6  2  0
  6  7  1  0
  7  8  1  0
  8  9  2  0
  9 10  1  0
 10 11  2  0
 11 12  1  0
 12 13  3  0
 11 14  1  0
 14 15  2  0
  6 16  1  0
 16 17  2  0
 17 18  1  0
 18 19  1  0
 19 20  1  0
 20 21  1  0
 21 22  1  0
 17 23  1  0
 23 24  2  0
 24  2  1  0
 24  5  1  0
 15  8  1  0
  1 25  1  0
  1 26  1  0
  1 27  1  0
  4 28  1  0
  7 29  1  0
  9 30  1  0
 10 31  1  0
 14 32  1  0
 15 33  1  0
 18 34  1  0
 19 35  1  0
 19 36  1  0
 20 37  1  0
 20 38  1  0
 21 39  1  0
 21 40  1  0
 22 41  1  0
M  END
>  <ScrubInfo>  (1) 
{"isomerGroup": 0, "isomerId": 0, "confId": 0, "nr_conformers:": 1, "nr_isomers:": 9}

$$$$
_i1
     RDKit          3D

 41 43  0  0  0  0  0  0  0  0999 V2000
   -0.6461   -0.5043    0.7265 N   0  0  0  0  0  0  0  0  0  0  0  0
   -1.5416   -0.4287   -0.3145 C   0  0  0  0  0  0  0  0  0  0  0  0
   -2.7545   -0.9885   -0.0025 N   0  0  0  0  0  0  0  0  0  0  0  0
   -3.7901   -1.1242   -1.0236 C   0  0  0  0  0  0  0  0  0  0  0  0
   -5.1709   -1.2730   -0.3846 C   0  0  0  0  0  0  0  0  0  0  0  0
   -5.3499   -2.5386    0.4428 C   0  0  0  0  0  0  0  0  0  0  0  0
   -5.0355   -3.6825   -0.3360 O   0  0  0  0  0  0  0  0  0  0  0  0
   -1.2668    0.1277   -1.4650 N   0  0  0  0  0  0  0  0  0  0  0  0
    0.0106    0.5995   -1.5091 C   0  0  0  0  0  0  0  0  0  0  0  0
    0.9764    0.5718   -0.5148 C   0  0  0  0  0  0  0  0  0  0  0  0
    2.0974    1.1823   -1.1032 C   0  0  0  0  0  0  0  0  0  0  0  0
    1.8749    1.5713   -2.3649 N   0  0  0  0  0  0  0  0  0  0  0  0
    0.5913    1.2063   -2.5869 N   0  0  0  0  0  0  0  0  0  0  0  0
   -0.0071    1.4722   -3.8707 C   0  0  0  0  0  0  0  0  0  0  0  0
    0.6398   -0.0163    0.7661 C   0  0  0  0  0  0  0  0  0  0  0  0
    1.3665   -0.1032    1.8390 N   0  0  0  0  0  0  0  0  0  0  0  0
    2.6662    0.3980    1.8996 C   0  0  0  0  0  0  0  0  0  0  0  0
    2.8974    1.7125    2.3148 C   0  0  0  0  0  0  0  0  0  0  0  0
    4.2022    2.2039    2.4186 C   0  0  0  0  0  0  0  0  0  0  0  0
    5.2884    1.3737    2.1225 C   0  0  0  0  0  0  0  0  0  0  0  0
    6.6281    1.8726    2.2344 C   0  0  0  0  0  0  0  0  0  0  0  0
    7.7126    2.2752    2.3276 N   0  0  0  0  0  0  0  0  0  0  0  0
    5.0618    0.0512    1.7269 C   0  0  0  0  0  0  0  0  0  0  0  0
    3.7547   -0.4344    1.6247 C   0  0  0  0  0  0  0  0  0  0  0  0
   -0.9927   -0.8179    1.6176 H   0  0  0  0  0  0  0  0  0  0  0  0
   -2.6619   -1.8436    0.5345 H   0  0  0  0  0  0  0  0  0  0  0  0
   -3.5598   -1.9768   -1.6720 H   0  0  0  0  0  0  0  0  0  0  0  0
   -3.8144   -0.2287   -1.6561 H   0  0  0  0  0  0  0  0  0  0  0  0
   -5.3895   -0.4008    0.2430 H   0  0  0  0  0  0  0  0  0  0  0  0
   -5.9093   -1.2827   -1.1960 H   0  0  0  0  0  0  0  0  0  0  0  0
   -6.3899   -2.6188    0.7759 H   0  0  0  0  0  0  0  0  0  0  0  0
   -4.7067   -2.5309    1.3280 H   0  0  0  0  0  0  0  0  0  0  0  0
   -5.3031   -4.4649    0.1779 H   0  0  0  0  0  0  0  0  0  0  0  0
    3.0763    1.3695   -0.6857 H   0  0  0  0  0  0  0  0  0  0  0  0
    0.5408    0.9058   -4.6280 H   0  0  0  0  0  0  0  0  0  0  0  0
    0.0659    2.5446   -4.0693 H   0  0  0  0  0  0  0  0  0  0  0  0
   -1.0563    1.1694   -3.8679 H   0  0  0  0  0  0  0  0  0  0  0  0
    2.0556    2.3557    2.5594 H   0  0  0  0  0  0  0  0  0  0  0  0
    4.3613    3.2324    2.7371 H   0  0  0  0  0  0  0  0  0  0  0  0
    5.8961   -0.6109    1.5026 H   0  0  0  0  0  0  0  0  0  0  0  0
    3.5817   -1.4669    1.3312 H   0  0  0  0  0  0  0  0  0  0  0  0
  1  2  1  0
  2  3  1  0
  3  4  1  0
  4  5  1  0
  5  6  1  0
  6  7  1  0
  2  8  2  0
  8  9  1  0
  9 10  2  0
 10 11  1  0
 11 12  2  0
 12 13  1  0
 13 14  1  0
 10 15  1  0
 15 16  2  3
 16 17  1  0
 17 18  2  0
 18 19  1  0
 19 20  2  0
 20 21  1  0
 21 22  3  0
 20 23  1  0
 23 24  2  0
 15  1  1  0
 24 17  1  0
 13  9  1  0
  1 25  1  0
  3 26  1  0
  4 27  1  0
  4 28  1  0
  5 29  1  0
  5 30  1  0
  6 31  1  0
  6 32  1  0
  7 33  1  0
 11 34  1  0
 14 35  1  0
 14 36  1  0
 14 37  1  0
 18 38  1  0
 19 39  1  0
 23 40  1  0
 24 41  1  0
M  END
>  <ScrubInfo>  (2) 
{"isomerGroup": 0, "isomerId": 1, "confId": 0, "nr_conformers:": 1, "nr_isomers:": 9}

$$$$
_i2
     RDKit          3D

 41 43  0  0  0  0  0  0  0  0999 V2000
   -0.8067   -0.1855   -0.7288 N   0  0  0  0  0  0  0  0  0  0  0  0
    0.4413    0.4109   -0.7329 C   0  0  0  0  0  0  0  0  0  0  0  0
    1.5345   -0.2351   -1.2798 N   0  0  0  0  0  0  0  0  0  0  0  0
    2.7682   -0.4988   -0.6420 C   0  0  0  0  0  0  0  0  0  0  0  0
    3.0086   -0.2530    0.7161 C   0  0  0  0  0  0  0  0  0  0  0  0
    4.2673   -0.4962    1.2799 C   0  0  0  0  0  0  0  0  0  0  0  0
    5.3108   -0.9814    0.4889 C   0  0  0  0  0  0  0  0  0  0  0  0
    6.5999   -1.2304    1.0647 C   0  0  0  0  0  0  0  0  0  0  0  0
    7.6446   -1.4343    1.5270 N   0  0  0  0  0  0  0  0  0  0  0  0
    5.0886   -1.2211   -0.8684 C   0  0  0  0  0  0  0  0  0  0  0  0
    3.8288   -0.9777   -1.4263 C   0  0  0  0  0  0  0  0  0  0  0  0
    0.4833    1.6577   -0.2482 C   0  0  0  0  0  0  0  0  0  0  0  0
    1.4664    2.7367   -0.1037 C   0  0  0  0  0  0  0  0  0  0  0  0
    0.9631    3.8181    0.4369 N   0  0  0  0  0  0  0  0  0  0  0  0
   -0.3768    3.5034    0.7218 N   0  0  0  0  0  0  0  0  0  0  0  0
   -1.2963    4.5722    1.0290 C   0  0  0  0  0  0  0  0  0  0  0  0
   -0.7607    2.2453    0.2860 C   0  0  0  0  0  0  0  0  0  0  0  0
   -1.9124    1.6689    0.3027 N   0  0  0  0  0  0  0  0  0  0  0  0
   -1.9469    0.3897   -0.2077 C   0  0  0  0  0  0  0  0  0  0  0  0
   -3.1096   -0.1520   -0.1335 N   0  0  0  0  0  0  0  0  0  0  0  0
   -3.3125   -1.5052   -0.6342 C   0  0  0  0  0  0  0  0  0  0  0  0
   -4.7043   -1.9784   -0.2117 C   0  0  0  0  0  0  0  0  0  0  0  0
   -4.7608   -2.3395    1.2679 C   0  0  0  0  0  0  0  0  0  0  0  0
   -4.0323   -3.5417    1.5064 O   0  0  0  0  0  0  0  0  0  0  0  0
   -0.8498   -1.1505   -1.0082 H   0  0  0  0  0  0  0  0  0  0  0  0
    1.2824   -0.9888   -1.9131 H   0  0  0  0  0  0  0  0  0  0  0  0
    2.2183    0.1058    1.3712 H   0  0  0  0  0  0  0  0  0  0  0  0
    4.4208   -0.3053    2.3411 H   0  0  0  0  0  0  0  0  0  0  0  0
    5.8917   -1.5921   -1.5030 H   0  0  0  0  0  0  0  0  0  0  0  0
    3.6853   -1.1539   -2.4906 H   0  0  0  0  0  0  0  0  0  0  0  0
    2.5006    2.6159   -0.4504 H   0  0  0  0  0  0  0  0  0  0  0  0
   -0.8014    5.3518    1.6173 H   0  0  0  0  0  0  0  0  0  0  0  0
   -2.1445    4.2016    1.6134 H   0  0  0  0  0  0  0  0  0  0  0  0
   -1.6778    5.0232    0.1077 H   0  0  0  0  0  0  0  0  0  0  0  0
   -3.2619   -1.4969   -1.7293 H   0  0  0  0  0  0  0  0  0  0  0  0
   -2.5537   -2.2005   -0.2579 H   0  0  0  0  0  0  0  0  0  0  0  0
   -5.4437   -1.1981   -0.4264 H   0  0  0  0  0  0  0  0  0  0  0  0
   -4.9644   -2.8618   -0.8068 H   0  0  0  0  0  0  0  0  0  0  0  0
   -4.3385   -1.5493    1.8958 H   0  0  0  0  0  0  0  0  0  0  0  0
   -5.7963   -2.5040    1.5835 H   0  0  0  0  0  0  0  0  0  0  0  0
   -4.5533   -4.2697    1.1267 H   0  0  0  0  0  0  0  0  0  0  0  0
  1  2  1  0
  2  3  1  0
  3  4  1  0
  4  5  2  0
  5  6  1  0
  6  7  2  0
  7  8  1  0
  8  9  3  0
  7 10  1  0
 10 11  2  0
  2 12  2  0
 12 13  1  0
 13 14  2  0
 14 15  1  0
 15 16  1  0
 15 17  1  0
 17 18  2  0
 18 19  1  0
 19 20  2  3
 20 21  1  0
 21 22  1  0
 22 23  1  0
 23 24  1  0
 19  1  1  0
 11  4  1  0
 17 12  1  0
  1 25  1  0
  3 26  1  0
  5 27  1  0
  6 28  1  0
 10 29  1  0
 11 30  1  0
 13 31  1  0
 16 32  1  0
 16 33  1  0
 16 34  1  0
 21 35  1  0
 21 36  1  0
 22 37  1  0
 22 38  1  0
 23 39  1  0
 23 40  1  0
 24 41  1  0
M  END
>  <ScrubInfo>  (3) 
{"isomerGroup": 0, "isomerId": 2, "confId": 0, "nr_conformers:": 1, "nr_isomers:": 9}

$$$$
_i3
     RDKit          3D

 41 43  0  0  0  0  0  0  0  0999 V2000
    1.6887   -1.2688   -1.9889 N   0  0  0  0  0  0  0  0  0  0  0  0
    1.4413   -0.7815   -0.7261 C   0  0  0  0  0  0  0  0  0  0  0  0
    2.3846   -0.8710    0.1551 N   0  0  0  0  0  0  0  0  0  0  0  0
    2.0980   -0.3457    1.4900 C   0  0  0  0  0  0  0  0  0  0  0  0
    3.3304   -0.5650    2.3612 C   0  0  0  0  0  0  0  0  0  0  0  0
    3.0998   -0.0720    3.7816 C   0  0  0  0  0  0  0  0  0  0  0  0
    4.2720   -0.2652    4.5637 O   0  0  0  0  0  0  0  0  0  0  0  0
    0.2243   -0.2110   -0.3912 N   0  0  0  0  0  0  0  0  0  0  0  0
   -0.7246   -0.1222   -1.2794 C   0  0  0  0  0  0  0  0  0  0  0  0
   -1.9861    0.4001   -1.1166 N   0  0  0  0  0  0  0  0  0  0  0  0
   -2.5423    1.0478    0.0033 C   0  0  0  0  0  0  0  0  0  0  0  0
   -1.8147    1.4138    1.1408 C   0  0  0  0  0  0  0  0  0  0  0  0
   -2.4331    2.0389    2.2323 C   0  0  0  0  0  0  0  0  0  0  0  0
   -3.8019    2.3063    2.2072 C   0  0  0  0  0  0  0  0  0  0  0  0
   -4.4366    2.9443    3.3228 C   0  0  0  0  0  0  0  0  0  0  0  0
   -4.9562    3.4609    4.2229 N   0  0  0  0  0  0  0  0  0  0  0  0
   -4.5474    1.9453    1.0848 C   0  0  0  0  0  0  0  0  0  0  0  0
   -3.9218    1.3219   -0.0018 C   0  0  0  0  0  0  0  0  0  0  0  0
   -0.4960   -0.6262   -2.6244 C   0  0  0  0  0  0  0  0  0  0  0  0
   -1.2007   -0.7238   -3.8366 C   0  0  0  0  0  0  0  0  0  0  0  0
   -0.4784   -1.3038   -4.8068 N   0  0  0  0  0  0  0  0  0  0  0  0
    0.7079   -1.5769   -4.2098 N   0  0  0  0  0  0  0  0  0  0  0  0
    1.7510   -2.2122   -4.9742 C   0  0  0  0  0  0  0  0  0  0  0  0
    0.7212   -1.1825   -2.9109 C   0  0  0  0  0  0  0  0  0  0  0  0
    2.6125   -1.6589   -2.1191 H   0  0  0  0  0  0  0  0  0  0  0  0
    1.2429   -0.8688    1.9354 H   0  0  0  0  0  0  0  0  0  0  0  0
    1.8755    0.7272    1.4432 H   0  0  0  0  0  0  0  0  0  0  0  0
    4.1991   -0.0524    1.9287 H   0  0  0  0  0  0  0  0  0  0  0  0
    3.5983   -1.6292    2.3787 H   0  0  0  0  0  0  0  0  0  0  0  0
    2.8627    0.9965    3.7908 H   0  0  0  0  0  0  0  0  0  0  0  0
    2.2747   -0.6097    4.2598 H   0  0  0  0  0  0  0  0  0  0  0  0
    4.5027   -1.2087    4.5153 H   0  0  0  0  0  0  0  0  0  0  0  0
   -2.6268    0.3250   -1.8933 H   0  0  0  0  0  0  0  0  0  0  0  0
   -0.7455    1.2352    1.2052 H   0  0  0  0  0  0  0  0  0  0  0  0
   -1.8308    2.3122    3.0970 H   0  0  0  0  0  0  0  0  0  0  0  0
   -5.6173    2.1418    1.0455 H   0  0  0  0  0  0  0  0  0  0  0  0
   -4.5351    1.0469   -0.8575 H   0  0  0  0  0  0  0  0  0  0  0  0
   -2.2062   -0.4037   -4.0742 H   0  0  0  0  0  0  0  0  0  0  0  0
    2.0055   -1.5625   -5.8153 H   0  0  0  0  0  0  0  0  0  0  0  0
    2.6311   -2.3679   -4.3469 H   0  0  0  0  0  0  0  0  0  0  0  0
    1.3774   -3.1745   -5.3333 H   0  0  0  0  0  0  0  0  0  0  0  0
  1  2  1  0
  2  3  2  3
  3  4  1  0
  4  5  1  0
  5  6  1  0
  6  7  1  0
  2  8  1  0
  8  9  2  0
  9 10  1  0
 10 11  1  0
 11 12  2  0
 12 13  1  0
 13 14  2  0
 14 15  1  0
 15 16  3  0
 14 17  1  0
 17 18  2  0
  9 19  1  0
 19 20  1  0
 20 21  2  0
 21 22  1  0
 22 23  1  0
 22 24  1  0
 24  1  1  0
 18 11  1  0
 24 19  2  0
  1 25  1  0
  4 26  1  0
  4 27  1  0
  5 28  1  0
  5 29  1  0
  6 30  1  0
  6 31  1  0
  7 32  1  0
 10 33  1  0
 12 34  1  0
 13 35  1  0
 17 36  1  0
 18 37  1  0
 20 38  1  0
 23 39  1  0
 23 40  1  0
 23 41  1  0
M  END
>  <ScrubInfo>  (4) 
{"isomerGroup": 0, "isomerId": 3, "confId": 0, "nr_conformers:": 1, "nr_isomers:": 9}

$$$$
_i4
     RDKit          3D

 41 43  0  0  0  0  0  0  0  0999 V2000
   -0.3908   -4.1400   -2.0272 N   0  0  0  0  0  0  0  0  0  0  0  0
   -1.4280   -3.3186   -1.5979 C   0  0  0  0  0  0  0  0  0  0  0  0
   -0.9925   -2.1750   -1.0541 C   0  0  0  0  0  0  0  0  0  0  0  0
   -1.5684   -1.0023   -0.4386 C   0  0  0  0  0  0  0  0  0  0  0  0
   -2.8504   -0.8256   -0.3527 N   0  0  0  0  0  0  0  0  0  0  0  0
   -3.3257    0.3383    0.2638 C   0  0  0  0  0  0  0  0  0  0  0  0
   -3.5105    0.3845    1.6487 C   0  0  0  0  0  0  0  0  0  0  0  0
   -4.0114    1.5376    2.2598 C   0  0  0  0  0  0  0  0  0  0  0  0
   -4.3435    2.6522    1.4830 C   0  0  0  0  0  0  0  0  0  0  0  0
   -4.8549    3.8377    2.1060 C   0  0  0  0  0  0  0  0  0  0  0  0
   -5.2667    4.7994    2.6089 N   0  0  0  0  0  0  0  0  0  0  0  0
   -4.1771    2.6047    0.0949 C   0  0  0  0  0  0  0  0  0  0  0  0
   -3.6751    1.4485   -0.5095 C   0  0  0  0  0  0  0  0  0  0  0  0
   -0.6500   -0.1068    0.0425 N   0  0  0  0  0  0  0  0  0  0  0  0
    0.6337   -0.2877   -0.0846 C   0  0  0  0  0  0  0  0  0  0  0  0
    1.4278    0.6806    0.4577 N   0  0  0  0  0  0  0  0  0  0  0  0
    2.7943    0.9011    0.0356 C   0  0  0  0  0  0  0  0  0  0  0  0
    3.4313    2.0028    0.8790 C   0  0  0  0  0  0  0  0  0  0  0  0
    4.8498    2.3265    0.4277 C   0  0  0  0  0  0  0  0  0  0  0  0
    5.7321    1.2446    0.6871 O   0  0  0  0  0  0  0  0  0  0  0  0
    1.2337   -1.3467   -0.7182 N   0  0  0  0  0  0  0  0  0  0  0  0
    0.4653   -2.2618   -1.1975 C   0  0  0  0  0  0  0  0  0  0  0  0
    0.8008   -3.4306   -1.8844 N   0  0  0  0  0  0  0  0  0  0  0  0
    2.0135   -4.1582   -1.5610 C   0  0  0  0  0  0  0  0  0  0  0  0
   -0.5594   -4.5586   -2.9450 H   0  0  0  0  0  0  0  0  0  0  0  0
   -2.4535   -3.6356   -1.7269 H   0  0  0  0  0  0  0  0  0  0  0  0
   -3.2556   -0.4831    2.2515 H   0  0  0  0  0  0  0  0  0  0  0  0
   -4.1395    1.5551    3.3401 H   0  0  0  0  0  0  0  0  0  0  0  0
   -4.4370    3.4603   -0.5248 H   0  0  0  0  0  0  0  0  0  0  0  0
   -3.5512    1.4087   -1.5883 H   0  0  0  0  0  0  0  0  0  0  0  0
    0.8921    1.5023    0.7110 H   0  0  0  0  0  0  0  0  0  0  0  0
    3.3709   -0.0247    0.1414 H   0  0  0  0  0  0  0  0  0  0  0  0
    2.8070    1.1882   -1.0223 H   0  0  0  0  0  0  0  0  0  0  0  0
    3.4415    1.6883    1.9300 H   0  0  0  0  0  0  0  0  0  0  0  0
    2.8216    2.9123    0.8172 H   0  0  0  0  0  0  0  0  0  0  0  0
    5.2217    3.1911    0.9865 H   0  0  0  0  0  0  0  0  0  0  0  0
    4.8909    2.5749   -0.6380 H   0  0  0  0  0  0  0  0  0  0  0  0
    5.6035    0.5703   -0.0012 H   0  0  0  0  0  0  0  0  0  0  0  0
    1.9688   -4.5565   -0.5420 H   0  0  0  0  0  0  0  0  0  0  0  0
    2.1529   -4.9930   -2.2554 H   0  0  0  0  0  0  0  0  0  0  0  0
    2.8880   -3.5048   -1.6440 H   0  0  0  0  0  0  0  0  0  0  0  0
  1  2  1  0
  2  3  2  0
  3  4  1  0
  4  5  2  3
  5  6  1  0
  6  7  2  0
  7  8  1  0
  8  9  2  0
  9 10  1  0
 10 11  3  0
  9 12  1  0
 12 13  2  0
  4 14  1  0
 14 15  2  0
 15 16  1  0
 16 17  1  0
 17 18  1  0
 18 19  1  0
 19 20  1  0
 15 21  1  0
 21 22  2  0
 22 23  1  0
 23 24  1  0
 23  1  1  0
 22  3  1  0
 13  6  1  0
  1 25  1  0
  2 26  1  0
  7 27  1  0
  8 28  1  0
 12 29  1  0
 13 30  1  0
 16 31  1  0
 17 32  1  0
 17 33  1  0
 18 34  1  0
 18 35  1  0
 19 36  1  0
 19 37  1  0
 20 38  1  0
 24 39  1  0
 24 40  1  0
 24 41  1  0
M  END
>  <ScrubInfo>  (5) 
{"isomerGroup": 0, "isomerId": 4, "confId": 0, "nr_conformers:": 1, "nr_isomers:": 9}

$$$$
_i5
     RDKit          3D

 41 43  0  0  0  0  0  0  0  0999 V2000
    1.4543   -0.2106   -0.7941 N   0  0  0  0  0  0  0  0  0  0  0  0
    1.5373    1.0815   -0.3381 C   0  0  0  0  0  0  0  0  0  0  0  0
    2.7329    1.7118   -0.5214 N   0  0  0  0  0  0  0  0  0  0  0  0
    3.6307    1.4914   -1.6382 C   0  0  0  0  0  0  0  0  0  0  0  0
    4.9488    0.8824   -1.1685 C   0  0  0  0  0  0  0  0  0  0  0  0
    4.8085   -0.4512   -0.4446 C   0  0  0  0  0  0  0  0  0  0  0  0
    4.0387   -1.3722   -1.2169 O   0  0  0  0  0  0  0  0  0  0  0  0
    0.5742    1.7294    0.2579 N   0  0  0  0  0  0  0  0  0  0  0  0
   -0.6554    1.1146    0.4636 C   0  0  0  0  0  0  0  0  0  0  0  0
   -1.5636    1.8423    1.0332 N   0  0  0  0  0  0  0  0  0  0  0  0
   -2.8467    1.3736    1.3023 C   0  0  0  0  0  0  0  0  0  0  0  0
   -3.8683    1.5320    0.3614 C   0  0  0  0  0  0  0  0  0  0  0  0
   -5.1675    1.1015    0.6465 C   0  0  0  0  0  0  0  0  0  0  0  0
   -5.4568    0.5241    1.8874 C   0  0  0  0  0  0  0  0  0  0  0  0
   -6.7893    0.0858    2.1848 C   0  0  0  0  0  0  0  0  0  0  0  0
   -7.8674   -0.2704    2.4252 N   0  0  0  0  0  0  0  0  0  0  0  0
   -4.4424    0.3854    2.8407 C   0  0  0  0  0  0  0  0  0  0  0  0
   -3.1452    0.8177    2.5494 C   0  0  0  0  0  0  0  0  0  0  0  0
   -0.7776   -0.2643    0.0199 C   0  0  0  0  0  0  0  0  0  0  0  0
   -1.7427   -1.2879    0.0340 C   0  0  0  0  0  0  0  0  0  0  0  0
   -1.3052   -2.4287   -0.5249 N   0  0  0  0  0  0  0  0  0  0  0  0
   -0.0447   -2.1302   -0.9132 N   0  0  0  0  0  0  0  0  0  0  0  0
    0.7526   -3.1260   -1.5822 C   0  0  0  0  0  0  0  0  0  0  0  0
    0.2960   -0.8568   -0.5928 C   0  0  0  0  0  0  0  0  0  0  0  0
    2.3130   -0.6673   -1.0998 H   0  0  0  0  0  0  0  0  0  0  0  0
    2.6737    2.6817   -0.2209 H   0  0  0  0  0  0  0  0  0  0  0  0
    3.8402    2.4591   -2.1093 H   0  0  0  0  0  0  0  0  0  0  0  0
    3.1724    0.8742   -2.4194 H   0  0  0  0  0  0  0  0  0  0  0  0
    5.5795    0.7366   -2.0542 H   0  0  0  0  0  0  0  0  0  0  0  0
    5.4740    1.5871   -0.5127 H   0  0  0  0  0  0  0  0  0  0  0  0
    4.3215   -0.3273    0.5277 H   0  0  0  0  0  0  0  0  0  0  0  0
    5.8009   -0.8828   -0.2757 H   0  0  0  0  0  0  0  0  0  0  0  0
    4.2414   -2.2551   -0.8532 H   0  0  0  0  0  0  0  0  0  0  0  0
   -3.6482    1.9990   -0.5957 H   0  0  0  0  0  0  0  0  0  0  0  0
   -5.9477    1.2294   -0.1014 H   0  0  0  0  0  0  0  0  0  0  0  0
   -4.6533   -0.0489    3.8161 H   0  0  0  0  0  0  0  0  0  0  0  0
   -2.3612    0.7281    3.2976 H   0  0  0  0  0  0  0  0  0  0  0  0
   -2.7495   -1.2759    0.4268 H   0  0  0  0  0  0  0  0  0  0  0  0
    0.0942   -3.7987   -2.1381 H   0  0  0  0  0  0  0  0  0  0  0  0
    1.4379   -2.6341   -2.2765 H   0  0  0  0  0  0  0  0  0  0  0  0
    1.3103   -3.6806   -0.8238 H   0  0  0  0  0  0  0  0  0  0  0  0
  1  2  1  0
  2  3  1  0
  3  4  1  0
  4  5  1  0
  5  6  1  0
  6  7  1  0
  2  8  2  0
  8  9  1  0
  9 10  2  3
 10 11  1  0
 11 12  2  0
 12 13  1  0
 13 14  2  0
 14 15  1  0
 15 16  3  0
 14 17  1  0
 17 18  2  0
  9 19  1  0
 19 20  1  0
 20 21  2  0
 21 22  1  0
 22 23  1  0
 22 24  1  0
 24  1  1  0
 18 11  1  0
 24 19  2  0
  1 25  1  0
  3 26  1  0
  4 27  1  0
  4 28  1  0
  5 29  1  0
  5 30  1  0
  6 31  1  0
  6 32  1  0
  7 33  1  0
 12 34  1  0
 13 35  1  0
 17 36  1  0
 18 37  1  0
 20 38  1  0
 23 39  1  0
 23 40  1  0
 23 41  1  0
M  END
>  <ScrubInfo>  (6) 
{"isomerGroup": 0, "isomerId": 5, "confId": 0, "nr_conformers:": 1, "nr_isomers:": 9}

$$$$
_i6
     RDKit          3D

 41 43  0  0  0  0  0  0  0  0999 V2000
   -0.1385   -4.0806   -2.0274 N   0  0  0  0  0  0  0  0  0  0  0  0
   -0.9651   -2.9627   -2.0550 C   0  0  0  0  0  0  0  0  0  0  0  0
   -0.5218   -1.9655   -1.2764 C   0  0  0  0  0  0  0  0  0  0  0  0
   -0.9099   -0.5966   -0.9182 C   0  0  0  0  0  0  0  0  0  0  0  0
   -2.0789   -0.0692   -1.4387 N   0  0  0  0  0  0  0  0  0  0  0  0
   -2.6274    1.2219   -1.3072 C   0  0  0  0  0  0  0  0  0  0  0  0
   -3.9001    1.4608   -1.8577 C   0  0  0  0  0  0  0  0  0  0  0  0
   -4.5208    2.7118   -1.7531 C   0  0  0  0  0  0  0  0  0  0  0  0
   -3.8796    3.7563   -1.0872 C   0  0  0  0  0  0  0  0  0  0  0  0
   -4.5104    5.0385   -0.9763 C   0  0  0  0  0  0  0  0  0  0  0  0
   -5.0304    6.0729   -0.8927 N   0  0  0  0  0  0  0  0  0  0  0  0
   -2.6204    3.5379   -0.5298 C   0  0  0  0  0  0  0  0  0  0  0  0
   -2.0061    2.2823   -0.6385 C   0  0  0  0  0  0  0  0  0  0  0  0
   -0.1149    0.0432   -0.1113 N   0  0  0  0  0  0  0  0  0  0  0  0
    1.0362   -0.5510    0.3502 C   0  0  0  0  0  0  0  0  0  0  0  0
    1.7686    0.2309    1.0627 N   0  0  0  0  0  0  0  0  0  0  0  0
    3.0135   -0.3093    1.6022 C   0  0  0  0  0  0  0  0  0  0  0  0
    3.7472    0.7883    2.3673 C   0  0  0  0  0  0  0  0  0  0  0  0
    2.9585    1.2873    3.5691 C   0  0  0  0  0  0  0  0  0  0  0  0
    3.7669    2.1995    4.3075 O   0  0  0  0  0  0  0  0  0  0  0  0
    1.4408   -1.8466    0.1269 N   0  0  0  0  0  0  0  0  0  0  0  0
    0.6887   -2.5423   -0.6515 C   0  0  0  0  0  0  0  0  0  0  0  0
    0.8340   -3.8692   -1.0567 N   0  0  0  0  0  0  0  0  0  0  0  0
    2.1495   -4.4561   -1.2316 C   0  0  0  0  0  0  0  0  0  0  0  0
   -0.6432   -4.9687   -1.9704 H   0  0  0  0  0  0  0  0  0  0  0  0
   -1.8512   -2.9908   -2.6714 H   0  0  0  0  0  0  0  0  0  0  0  0
   -2.6188   -0.6734   -2.0430 H   0  0  0  0  0  0  0  0  0  0  0  0
   -4.4327    0.6676   -2.3778 H   0  0  0  0  0  0  0  0  0  0  0  0
   -5.5056    2.8592   -2.1926 H   0  0  0  0  0  0  0  0  0  0  0  0
   -2.0990    4.3359   -0.0035 H   0  0  0  0  0  0  0  0  0  0  0  0
   -1.0236    2.1697   -0.1878 H   0  0  0  0  0  0  0  0  0  0  0  0
    2.8145   -1.1510    2.2769 H   0  0  0  0  0  0  0  0  0  0  0  0
    3.6660   -0.6569    0.7919 H   0  0  0  0  0  0  0  0  0  0  0  0
    4.7196    0.4081    2.7040 H   0  0  0  0  0  0  0  0  0  0  0  0
    3.9683    1.6339    1.7038 H   0  0  0  0  0  0  0  0  0  0  0  0
    2.0481    1.8087    3.2570 H   0  0  0  0  0  0  0  0  0  0  0  0
    2.6860    0.4599    4.2318 H   0  0  0  0  0  0  0  0  0  0  0  0
    3.2017    2.5636    5.0097 H   0  0  0  0  0  0  0  0  0  0  0  0
    2.0626   -5.5235   -1.4593 H   0  0  0  0  0  0  0  0  0  0  0  0
    2.6873   -3.9679   -2.0510 H   0  0  0  0  0  0  0  0  0  0  0  0
    2.7406   -4.3568   -0.3156 H   0  0  0  0  0  0  0  0  0  0  0  0
  1  2  1  0
  2  3  2  0
  3  4  1  0
  4  5  1  0
  5  6  1  0
  6  7  2  0
  7  8  1  0
  8  9  2  0
  9 10  1  0
 10 11  3  0
  9 12  1  0
 12 13  2  0
  4 14  2  0
 14 15  1  0
 15 16  2  3
 16 17  1  0
 17 18  1  0
 18 19  1  0
 19 20  1  0
 15 21  1  0
 21 22  2  0
 22 23  1  0
 23 24  1  0
 23  1  1  0
 22  3  1  0
 13  6  1  0
  1 25  1  0
  2 26  1  0
  5 27  1  0
  7 28  1  0
  8 29  1  0
 12 30  1  0
 13 31  1  0
 17 32  1  0
 17 33  1  0
 18 34  1  0
 18 35  1  0
 19 36  1  0
 19 37  1  0
 20 38  1  0
 24 39  1  0
 24 40  1  0
 24 41  1  0
M  END
>  <ScrubInfo>  (7) 
{"isomerGroup": 0, "isomerId": 6, "confId": 0, "nr_conformers:": 1, "nr_isomers:": 9}

$$$$
_i7
     RDKit          3D

 41 43  0  0  0  0  0  0  0  0999 V2000
    1.2026    0.9282    0.4599 N   0  0  0  0  0  0  0  0  0  0  0  0
    1.6482   -0.3390    0.1222 C   0  0  0  0  0  0  0  0  0  0  0  0
    2.8528   -0.7990    0.1855 N   0  0  0  0  0  0  0  0  0  0  0  0
    3.9052    0.0946    0.6656 C   0  0  0  0  0  0  0  0  0  0  0  0
    5.2177   -0.6867    0.6983 C   0  0  0  0  0  0  0  0  0  0  0  0
    6.3883    0.1922    1.1147 C   0  0  0  0  0  0  0  0  0  0  0  0
    6.1886    0.7106    2.4233 O   0  0  0  0  0  0  0  0  0  0  0  0
    0.6449   -1.1674   -0.3302 N   0  0  0  0  0  0  0  0  0  0  0  0
   -0.7072   -0.9646   -0.5028 C   0  0  0  0  0  0  0  0  0  0  0  0
   -1.4763   -1.9102   -0.9532 N   0  0  0  0  0  0  0  0  0  0  0  0
   -2.8467   -1.7385   -1.1407 C   0  0  0  0  0  0  0  0  0  0  0  0
   -3.7442   -2.0722   -0.1226 C   0  0  0  0  0  0  0  0  0  0  0  0
   -5.1220   -1.9435   -0.3221 C   0  0  0  0  0  0  0  0  0  0  0  0
   -5.6121   -1.4946   -1.5530 C   0  0  0  0  0  0  0  0  0  0  0  0
   -7.0248   -1.3662   -1.7624 C   0  0  0  0  0  0  0  0  0  0  0  0
   -8.1682   -1.2622   -1.9317 N   0  0  0  0  0  0  0  0  0  0  0  0
   -4.7178   -1.1809   -2.5820 C   0  0  0  0  0  0  0  0  0  0  0  0
   -3.3411   -1.3116   -2.3764 C   0  0  0  0  0  0  0  0  0  0  0  0
   -1.0794    0.3872   -0.1197 C   0  0  0  0  0  0  0  0  0  0  0  0
   -2.2538    1.1599   -0.0621 C   0  0  0  0  0  0  0  0  0  0  0  0
   -2.0390    2.4038    0.3910 N   0  0  0  0  0  0  0  0  0  0  0  0
   -0.7087    2.4377    0.6219 N   0  0  0  0  0  0  0  0  0  0  0  0
   -0.1117    3.6462    1.1328 C   0  0  0  0  0  0  0  0  0  0  0  0
   -0.1054    1.2514    0.3351 C   0  0  0  0  0  0  0  0  0  0  0  0
    1.8927    1.5811    0.8066 H   0  0  0  0  0  0  0  0  0  0  0  0
    4.0079    0.9544   -0.0072 H   0  0  0  0  0  0  0  0  0  0  0  0
    3.6679    0.4579    1.6724 H   0  0  0  0  0  0  0  0  0  0  0  0
    5.1149   -1.5222    1.4018 H   0  0  0  0  0  0  0  0  0  0  0  0
    5.4204   -1.1180   -0.2892 H   0  0  0  0  0  0  0  0  0  0  0  0
    7.3221   -0.3792    1.1078 H   0  0  0  0  0  0  0  0  0  0  0  0
    6.5046    1.0370    0.4285 H   0  0  0  0  0  0  0  0  0  0  0  0
    6.1876   -0.0466    3.0352 H   0  0  0  0  0  0  0  0  0  0  0  0
    0.9614   -2.0932   -0.5800 H   0  0  0  0  0  0  0  0  0  0  0  0
   -3.3661   -2.4374    0.8292 H   0  0  0  0  0  0  0  0  0  0  0  0
   -5.8046   -2.2032    0.4849 H   0  0  0  0  0  0  0  0  0  0  0  0
   -5.0830   -0.8417   -3.5496 H   0  0  0  0  0  0  0  0  0  0  0  0
   -2.6486   -1.0836   -3.1830 H   0  0  0  0  0  0  0  0  0  0  0  0
   -3.2671    0.8896   -0.3232 H   0  0  0  0  0  0  0  0  0  0  0  0
   -0.1427    3.6051    2.2241 H   0  0  0  0  0  0  0  0  0  0  0  0
    0.9204    3.7175    0.7820 H   0  0  0  0  0  0  0  0  0  0  0  0
   -0.6780    4.5072    0.7681 H   0  0  0  0  0  0  0  0  0  0  0  0
  1  2  1  0
  2  3  2  3
  3  4  1  0
  4  5  1  0
  5  6  1  0
  6  7  1  0
  2  8  1  0
  8  9  1  0
  9 10  2  3
 10 11  1  0
 11 12  2  0
 12 13  1  0
 13 14  2  0
 14 15  1  0
 15 16  3  0
 14 17  1  0
 17 18  2  0
  9 19  1  0
 19 20  1  0
 20 21  2  0
 21 22  1  0
 22 23  1  0
 22 24  1  0
 24  1  1  0
 18 11  1  0
 24 19  2  0
  1 25  1  0
  4 26  1  0
  4 27  1  0
  5 28  1  0
  5 29  1  0
  6 30  1  0
  6 31  1  0
  7 32  1  0
  8 33  1  0
 12 34  1  0
 13 35  1  0
 17 36  1  0
 18 37  1  0
 20 38  1  0
 23 39  1  0
 23 40  1  0
 23 41  1  0
M  END
>  <ScrubInfo>  (8) 
{"isomerGroup": 0, "isomerId": 7, "confId": 0, "nr_conformers:": 1, "nr_isomers:": 9}

$$$$
_i8
     RDKit          3D

 41 43  0  0  0  0  0  0  0  0999 V2000
   -2.0207   -1.5314   -2.5929 N   0  0  0  0  0  0  0  0  0  0  0  0
   -2.0138   -0.5615   -1.5972 C   0  0  0  0  0  0  0  0  0  0  0  0
   -0.7967   -0.3296   -1.0849 C   0  0  0  0  0  0  0  0  0  0  0  0
   -0.1379    0.4836   -0.0473 C   0  0  0  0  0  0  0  0  0  0  0  0
   -0.6492    1.3676    0.7588 N   0  0  0  0  0  0  0  0  0  0  0  0
   -2.0101    1.6756    0.7182 C   0  0  0  0  0  0  0  0  0  0  0  0
   -2.9110    0.9960    1.5425 C   0  0  0  0  0  0  0  0  0  0  0  0
   -4.2698    1.3249    1.5297 C   0  0  0  0  0  0  0  0  0  0  0  0
   -4.7337    2.3512    0.6999 C   0  0  0  0  0  0  0  0  0  0  0  0
   -6.1265    2.6910    0.6842 C   0  0  0  0  0  0  0  0  0  0  0  0
   -7.2548    2.9614    0.6644 N   0  0  0  0  0  0  0  0  0  0  0  0
   -3.8313    3.0478   -0.1109 C   0  0  0  0  0  0  0  0  0  0  0  0
   -2.4738    2.7140   -0.0940 C   0  0  0  0  0  0  0  0  0  0  0  0
    1.2055    0.2305    0.0482 N   0  0  0  0  0  0  0  0  0  0  0  0
    1.9391   -0.6601   -0.6941 C   0  0  0  0  0  0  0  0  0  0  0  0
    3.1905   -0.9183   -0.5671 N   0  0  0  0  0  0  0  0  0  0  0  0
    4.0190   -0.2411    0.4207 C   0  0  0  0  0  0  0  0  0  0  0  0
    3.9783   -1.0002    1.7460 C   0  0  0  0  0  0  0  0  0  0  0  0
    4.8510   -0.3511    2.8140 C   0  0  0  0  0  0  0  0  0  0  0  0
    6.2326   -0.5626    2.5636 O   0  0  0  0  0  0  0  0  0  0  0  0
    1.3457   -1.3941   -1.6993 N   0  0  0  0  0  0  0  0  0  0  0  0
    0.0763   -1.2400   -1.9035 C   0  0  0  0  0  0  0  0  0  0  0  0
   -0.7055   -1.8691   -2.8747 N   0  0  0  0  0  0  0  0  0  0  0  0
   -0.3969   -3.2131   -3.3254 C   0  0  0  0  0  0  0  0  0  0  0  0
   -2.6062   -1.2915   -3.3963 H   0  0  0  0  0  0  0  0  0  0  0  0
   -2.9529   -0.1006   -1.3310 H   0  0  0  0  0  0  0  0  0  0  0  0
   -2.5501    0.2094    2.2008 H   0  0  0  0  0  0  0  0  0  0  0  0
   -4.9565    0.7817    2.1764 H   0  0  0  0  0  0  0  0  0  0  0  0
   -4.1738    3.8584   -0.7517 H   0  0  0  0  0  0  0  0  0  0  0  0
   -1.7714    3.2690   -0.7111 H   0  0  0  0  0  0  0  0  0  0  0  0
    1.6754    0.7476    0.7715 H   0  0  0  0  0  0  0  0  0  0  0  0
    5.0435   -0.2238    0.0330 H   0  0  0  0  0  0  0  0  0  0  0  0
    3.7350    0.8090    0.5535 H   0  0  0  0  0  0  0  0  0  0  0  0
    4.3045   -2.0341    1.5792 H   0  0  0  0  0  0  0  0  0  0  0  0
    2.9447   -1.0397    2.1092 H   0  0  0  0  0  0  0  0  0  0  0  0
    4.6286   -0.7970    3.7886 H   0  0  0  0  0  0  0  0  0  0  0  0
    4.6647    0.7251    2.8890 H   0  0  0  0  0  0  0  0  0  0  0  0
    6.4562   -0.1793    1.6995 H   0  0  0  0  0  0  0  0  0  0  0  0
   -0.5210   -3.9343   -2.5109 H   0  0  0  0  0  0  0  0  0  0  0  0
   -1.0599   -3.5002   -4.1481 H   0  0  0  0  0  0  0  0  0  0  0  0
    0.6331   -3.2707   -3.6918 H   0  0  0  0  0  0  0  0  0  0  0  0
  1  2  1  0
  2  3  2  0
  3  4  1  0
  4  5  2  3
  5  6  1  0
  6  7  2  0
  7  8  1  0
  8  9  2  0
  9 10  1  0
 10 11  3  0
  9 12  1  0
 12 13  2  0
  4 14  1  0
 14 15  1  0
 15 16  2  3
 16 17  1  0
 17 18  1  0
 18 19  1  0
 19 20  1  0
 15 21  1  0
 21 22  2  0
 22 23  1  0
 23 24  1  0
 23  1  1  0
 22  3  1  0
 13  6  1  0
  1 25  1  0
  2 26  1  0
  7 27  1  0
  8 28  1  0
 12 29  1  0
 13 30  1  0
 14 31  1  0
 17 32  1  0
 17 33  1  0
 18 34  1  0
 18 35  1  0
 19 36  1  0
 19 37  1  0
 20 38  1  0
 24 39  1  0
 24 40  1  0
 24 41  1  0
M  END
>  <ScrubInfo>  (9) 
{"isomerGroup": 0, "isomerId": 8, "confId": 0, "nr_conformers:": 1, "nr_isomers:": 9}

$$$$
