REMARK SMILES Cn1ncc2c(Nc3ccc(C#N)cc3)nc(NCCCO)nc21
REMARK SMILES IDX 18 1 17 3 2 4 3 5 24 6 4 7 23 8 5 9 6 10 16 11 1 12 7 13
REMARK SMILES IDX 8 15 9 16 15 17 10 18 14 19 11 20 12 21 13 22 19 23 20 24
REMARK SMILES IDX 21 25 22 26
REMARK H PARENT 18 2 7 14 22 27
ROOT
ATOM      1  N   UNL     1      -2.554   0.879   0.858  1.00  0.00    -0.354 N 
ATOM      2  H   UNL     1      -2.204   1.524   1.561  1.00  0.00     0.163 HD
ENDROOT
BRANCH   1   3
ATOM      3  C   UNL     1      -1.462   0.092   0.505  1.00  0.00     0.226 A 
ATOM      4  N   UNL     1      -0.364  -2.913  -1.046  1.00  0.00    -0.250 N 
ATOM      5  N   UNL     1       0.925  -3.313  -1.150  1.00  0.00    -0.179 NA
ATOM      6  C   UNL     1      -0.512  -1.708  -0.415  1.00  0.00     0.165 A 
ATOM      7  C   UNL     1       1.602  -2.320  -0.562  1.00  0.00     0.149 A 
ATOM      8  N   UNL     1      -1.656  -1.063  -0.145  1.00  0.00    -0.193 NA
ATOM      9  C   UNL     1       0.764  -1.284  -0.102  1.00  0.00     0.082 A 
ATOM     10  C   UNL     1       0.875  -0.055   0.551  1.00  0.00     0.147 A 
ATOM     11  N   UNL     1      -0.269   0.602   0.866  1.00  0.00    -0.195 NA
ATOM     12  C   UNL     1      -1.411  -3.751  -1.572  1.00  0.00     0.176 C 
BRANCH  10  13
ATOM     13  N   UNL     1       2.080   0.536   0.964  1.00  0.00    -0.339 N 
ATOM     14  H   UNL     1       1.835   1.405   1.434  1.00  0.00     0.168 HD
BRANCH  13  15
ATOM     15  C   UNL     1       3.276   0.679   0.232  1.00  0.00     0.040 A 
ATOM     16  C   UNL     1       3.332   0.620  -1.165  1.00  0.00     0.027 A 
ATOM     17  C   UNL     1       4.456   0.955   0.936  1.00  0.00     0.027 A 
ATOM     18  C   UNL     1       4.545   0.798  -1.842  1.00  0.00     0.021 A 
ATOM     19  C   UNL     1       5.671   1.133   0.266  1.00  0.00     0.021 A 
ATOM     20  C   UNL     1       5.718   1.052  -1.128  1.00  0.00     0.052 A 
BRANCH  20  21
ATOM     21  C   UNL     1       6.960   1.236  -1.820  1.00  0.00     0.099 C 
ATOM     22  N   UNL     1       7.966   1.386  -2.379  1.00  0.00    -0.192 NA
ENDBRANCH  20  21
ENDBRANCH  13  15
ENDBRANCH  10  13
ENDBRANCH   1   3
BRANCH   1  23
ATOM     23  C   UNL     1      -3.738   0.131   1.247  1.00  0.00     0.118 C 
BRANCH  23  24
ATOM     24  C   UNL     1      -4.851   1.087   1.663  1.00  0.00     0.049 C 
BRANCH  24  25
ATOM     25  C   UNL     1      -5.367   1.921   0.499  1.00  0.00     0.158 C 
BRANCH  25  26
ATOM     26  O   UNL     1      -6.451   2.721   0.957  1.00  0.00    -0.396 OA
ATOM     27  H   UNL     1      -6.738   3.265   0.204  1.00  0.00     0.210 HD
ENDBRANCH  25  26
ENDBRANCH  24  25
ENDBRANCH  23  24
ENDBRANCH   1  23
TORSDOF 8
