_i0
     RDKit          3D

 43 45  0  0  0  0  0  0  0  0999 V2000
   -6.7673    0.9657   -0.6208 C   0  0  0  0  0  0  0  0  0  0  0  0
   -6.0977   -0.0283    0.1453 O   0  0  0  0  0  0  0  0  0  0  0  0
   -4.7298   -0.0199    0.1065 C   0  0  0  0  0  0  0  0  0  0  0  0
   -3.9376    0.8689   -0.6144 C   0  0  0  0  0  0  0  0  0  0  0  0
   -2.5417    0.7674   -0.5673 C   0  0  0  0  0  0  0  0  0  0  0  0
   -1.9123   -0.2188    0.1981 C   0  0  0  0  0  0  0  0  0  0  0  0
   -0.5183   -0.3663    0.2787 N   0  0  0  0  0  0  0  0  0  0  0  0
    0.5698    0.3011   -0.2639 C   0  0  0  0  0  0  0  0  0  0  0  0
    1.7651   -0.1801    0.0898 N   0  0  0  0  0  0  0  0  0  0  0  0
    2.8634    0.4190   -0.4096 C   0  0  0  0  0  0  0  0  0  0  0  0
    4.1379   -0.0330    0.0172 N   0  0  0  0  0  0  0  0  0  0  0  0
    4.1597   -1.3868    0.5702 C   0  0  0  0  0  0  0  0  0  0  0  0
    5.6113   -1.7944    0.8447 C   0  0  0  0  0  0  0  0  0  0  0  0
    6.3420   -1.8499   -0.3827 O   0  0  0  0  0  0  0  0  0  0  0  0
    2.8045    1.5222   -1.2593 C   0  0  0  0  0  0  0  0  0  0  0  0
    3.9126    2.1393   -1.7812 N   0  0  0  0  0  0  0  0  0  0  0  0
    3.6817    3.1875   -2.5911 C   0  0  0  0  0  0  0  0  0  0  0  0
    2.4020    3.6008   -2.8801 C   0  0  0  0  0  0  0  0  0  0  0  0
    1.3112    2.9837   -2.3733 N   0  0  0  0  0  0  0  0  0  0  0  0
    1.5014    1.9377   -1.5579 C   0  0  0  0  0  0  0  0  0  0  0  0
    0.4174    1.3439   -1.0775 N   0  0  0  0  0  0  0  0  0  0  0  0
   -2.7242   -1.1189    0.9273 C   0  0  0  0  0  0  0  0  0  0  0  0
   -2.0343   -2.0635    1.6566 O   0  0  0  0  0  0  0  0  0  0  0  0
   -2.8082   -2.9874    2.4116 C   0  0  0  0  0  0  0  0  0  0  0  0
   -4.1185   -1.0129    0.8763 C   0  0  0  0  0  0  0  0  0  0  0  0
   -7.8436    0.8246   -0.4829 H   0  0  0  0  0  0  0  0  0  0  0  0
   -6.5511    0.8534   -1.6884 H   0  0  0  0  0  0  0  0  0  0  0  0
   -6.5157    1.9716   -0.2688 H   0  0  0  0  0  0  0  0  0  0  0  0
   -4.3650    1.6560   -1.2264 H   0  0  0  0  0  0  0  0  0  0  0  0
   -1.9616    1.4809   -1.1454 H   0  0  0  0  0  0  0  0  0  0  0  0
   -0.2201   -1.1227    0.8823 H   0  0  0  0  0  0  0  0  0  0  0  0
    4.7931    0.0570   -0.7644 H   0  0  0  0  0  0  0  0  0  0  0  0
    3.7221   -2.0909   -0.1483 H   0  0  0  0  0  0  0  0  0  0  0  0
    3.5948   -1.4274    1.5083 H   0  0  0  0  0  0  0  0  0  0  0  0
    6.1011   -1.0715    1.5055 H   0  0  0  0  0  0  0  0  0  0  0  0
    5.6452   -2.7849    1.3086 H   0  0  0  0  0  0  0  0  0  0  0  0
    7.2689   -2.0289   -0.1480 H   0  0  0  0  0  0  0  0  0  0  0  0
    4.5532    3.6842   -3.0007 H   0  0  0  0  0  0  0  0  0  0  0  0
    2.2085    4.4448   -3.5325 H   0  0  0  0  0  0  0  0  0  0  0  0
   -2.1152   -3.6588    2.9277 H   0  0  0  0  0  0  0  0  0  0  0  0
   -3.4030   -2.4743    3.1744 H   0  0  0  0  0  0  0  0  0  0  0  0
   -3.4394   -3.5997    1.7593 H   0  0  0  0  0  0  0  0  0  0  0  0
   -4.7625   -1.6904    1.4261 H   0  0  0  0  0  0  0  0  0  0  0  0
  1  2  1  0
  2  3  1  0
  3  4  2  0
  4  5  1  0
  5  6  2  0
  6  7  1  0
  7  8  1  0
  8  9  2  0
  9 10  1  0
 10 11  1  0
 11 12  1  0
 12 13  1  0
 13 14  1  0
 10 15  2  0
 15 16  1  0
 16 17  2  0
 17 18  1  0
 18 19  2  0
 19 20  1  0
 20 21  2  0
  6 22  1  0
 22 23  1  0
 23 24  1  0
 22 25  2  0
 25  3  1  0
 21  8  1  0
 20 15  1  0
  1 26  1  0
  1 27  1  0
  1 28  1  0
  4 29  1  0
  5 30  1  0
  7 31  1  0
 11 32  1  0
 12 33  1  0
 12 34  1  0
 13 35  1  0
 13 36  1  0
 14 37  1  0
 17 38  1  0
 18 39  1  0
 24 40  1  0
 24 41  1  0
 24 42  1  0
 25 43  1  0
M  END
>  <ScrubInfo>  (1) 
{"isomerGroup": 0, "isomerId": 0, "confId": 0, "nr_conformers:": 1, "nr_isomers:": 9}

$$$$
_i1
     RDKit          3D

 43 45  0  0  0  0  0  0  0  0999 V2000
   -0.3137   -0.7519    0.2711 N   0  0  0  0  0  0  0  0  0  0  0  0
   -1.6630   -0.9889    0.1505 C   0  0  0  0  0  0  0  0  0  0  0  0
   -2.4842    0.1317    0.1453 N   0  0  0  0  0  0  0  0  0  0  0  0
   -3.9380    0.1482    0.2570 C   0  0  0  0  0  0  0  0  0  0  0  0
   -4.4237    1.5998    0.3615 C   0  0  0  0  0  0  0  0  0  0  0  0
   -3.8173    2.2564    1.4783 O   0  0  0  0  0  0  0  0  0  0  0  0
   -2.0822   -2.2787    0.0410 C   0  0  0  0  0  0  0  0  0  0  0  0
   -3.4037   -2.6656   -0.0807 N   0  0  0  0  0  0  0  0  0  0  0  0
   -3.6080   -3.9358   -0.1684 C   0  0  0  0  0  0  0  0  0  0  0  0
   -2.5096   -4.9392   -0.1322 C   0  0  0  0  0  0  0  0  0  0  0  0
   -1.2701   -4.6146   -0.0179 N   0  0  0  0  0  0  0  0  0  0  0  0
   -0.9394   -3.2810    0.0683 C   0  0  0  0  0  0  0  0  0  0  0  0
    0.3207   -3.0284    0.1615 N   0  0  0  0  0  0  0  0  0  0  0  0
    0.6652   -1.7080    0.2368 C   0  0  0  0  0  0  0  0  0  0  0  0
    1.9461   -1.5040    0.2646 N   0  0  0  0  0  0  0  0  0  0  0  0
    2.4341   -0.1911    0.3488 C   0  0  0  0  0  0  0  0  0  0  0  0
    2.8531    0.2761    1.5976 C   0  0  0  0  0  0  0  0  0  0  0  0
    3.2997    1.5901    1.7546 C   0  0  0  0  0  0  0  0  0  0  0  0
    3.3379    2.4617    0.6653 C   0  0  0  0  0  0  0  0  0  0  0  0
    3.7782    3.7229    0.9575 O   0  0  0  0  0  0  0  0  0  0  0  0
    3.8635    4.6406   -0.1259 C   0  0  0  0  0  0  0  0  0  0  0  0
    2.9397    2.0010   -0.5892 C   0  0  0  0  0  0  0  0  0  0  0  0
    2.5175    0.6750   -0.7559 C   0  0  0  0  0  0  0  0  0  0  0  0
    2.1340    0.3481   -2.0336 O   0  0  0  0  0  0  0  0  0  0  0  0
    2.6846   -0.8857   -2.4971 C   0  0  0  0  0  0  0  0  0  0  0  0
   -0.0278    0.2095    0.1711 H   0  0  0  0  0  0  0  0  0  0  0  0
   -2.0577    0.9387    0.5996 H   0  0  0  0  0  0  0  0  0  0  0  0
   -4.3996   -0.3198   -0.6181 H   0  0  0  0  0  0  0  0  0  0  0  0
   -4.2384   -0.3900    1.1630 H   0  0  0  0  0  0  0  0  0  0  0  0
   -4.1565    2.1635   -0.5380 H   0  0  0  0  0  0  0  0  0  0  0  0
   -5.5104    1.6373    0.4845 H   0  0  0  0  0  0  0  0  0  0  0  0
   -4.0300    1.7352    2.2721 H   0  0  0  0  0  0  0  0  0  0  0  0
   -4.6215   -4.3520   -0.2730 H   0  0  0  0  0  0  0  0  0  0  0  0
   -2.8286   -5.9896   -0.2082 H   0  0  0  0  0  0  0  0  0  0  0  0
    2.8212   -0.3903    2.4560 H   0  0  0  0  0  0  0  0  0  0  0  0
    3.6162    1.9364    2.7356 H   0  0  0  0  0  0  0  0  0  0  0  0
    4.2402    5.5892    0.2687 H   0  0  0  0  0  0  0  0  0  0  0  0
    4.5712    4.2912   -0.8850 H   0  0  0  0  0  0  0  0  0  0  0  0
    2.8766    4.8296   -0.5611 H   0  0  0  0  0  0  0  0  0  0  0  0
    2.9554    2.6416   -1.4644 H   0  0  0  0  0  0  0  0  0  0  0  0
    1.9721   -1.7005   -2.3435 H   0  0  0  0  0  0  0  0  0  0  0  0
    3.6540   -1.1195   -2.0421 H   0  0  0  0  0  0  0  0  0  0  0  0
    2.8423   -0.7895   -3.5760 H   0  0  0  0  0  0  0  0  0  0  0  0
  1  2  1  0
  2  3  1  0
  3  4  1  0
  4  5  1  0
  5  6  1  0
  2  7  2  0
  7  8  1  0
  8  9  2  0
  9 10  1  0
 10 11  2  0
 11 12  1  0
 12 13  2  0
 13 14  1  0
 14 15  2  3
 15 16  1  0
 16 17  2  0
 17 18  1  0
 18 19  2  0
 19 20  1  0
 20 21  1  0
 19 22  1  0
 22 23  2  0
 23 24  1  0
 24 25  1  0
 14  1  1  0
 23 16  1  0
 12  7  1  0
  1 26  1  0
  3 27  1  0
  4 28  1  0
  4 29  1  0
  5 30  1  0
  5 31  1  0
  6 32  1  0
  9 33  1  0
 10 34  1  0
 17 35  1  0
 18 36  1  0
 21 37  1  0
 21 38  1  0
 21 39  1  0
 22 40  1  0
 25 41  1  0
 25 42  1  0
 25 43  1  0
M  END
>  <ScrubInfo>  (2) 
{"isomerGroup": 0, "isomerId": 1, "confId": 0, "nr_conformers:": 1, "nr_isomers:": 9}

$$$$
_i2
     RDKit          3D

 43 45  0  0  0  0  0  0  0  0999 V2000
   -1.5833    0.5452    0.0480 N   0  0  0  0  0  0  0  0  0  0  0  0
   -0.3698   -0.0897    0.0172 C   0  0  0  0  0  0  0  0  0  0  0  0
    0.6769    0.7791    0.1647 N   0  0  0  0  0  0  0  0  0  0  0  0
    2.0686    0.5263    0.1875 C   0  0  0  0  0  0  0  0  0  0  0  0
    2.6280   -0.7455    0.3376 C   0  0  0  0  0  0  0  0  0  0  0  0
    4.0163   -0.9254    0.3734 C   0  0  0  0  0  0  0  0  0  0  0  0
    4.8693    0.1697    0.2680 C   0  0  0  0  0  0  0  0  0  0  0  0
    6.2369    0.1285    0.2892 O   0  0  0  0  0  0  0  0  0  0  0  0
    6.8383   -1.1553    0.4077 C   0  0  0  0  0  0  0  0  0  0  0  0
    4.3272    1.4503    0.1310 C   0  0  0  0  0  0  0  0  0  0  0  0
    2.9416    1.6362    0.0938 C   0  0  0  0  0  0  0  0  0  0  0  0
    2.3117    2.8560   -0.0377 O   0  0  0  0  0  0  0  0  0  0  0  0
    3.1494    4.0027   -0.1348 C   0  0  0  0  0  0  0  0  0  0  0  0
   -0.2834   -1.3783   -0.1351 N   0  0  0  0  0  0  0  0  0  0  0  0
   -1.4881   -2.0951   -0.2767 C   0  0  0  0  0  0  0  0  0  0  0  0
   -1.3232   -3.4301   -0.4430 N   0  0  0  0  0  0  0  0  0  0  0  0
   -2.4605   -4.1498   -0.5851 C   0  0  0  0  0  0  0  0  0  0  0  0
   -3.7217   -3.5731   -0.5633 C   0  0  0  0  0  0  0  0  0  0  0  0
   -3.9119   -2.2458   -0.3976 N   0  0  0  0  0  0  0  0  0  0  0  0
   -2.7706   -1.5236   -0.2551 C   0  0  0  0  0  0  0  0  0  0  0  0
   -2.8198   -0.0427   -0.0580 C   0  0  0  0  0  0  0  0  0  0  0  0
   -3.8479    0.7451    0.0302 N   0  0  0  0  0  0  0  0  0  0  0  0
   -5.2064    0.2170   -0.0650 C   0  0  0  0  0  0  0  0  0  0  0  0
   -6.1953    1.3737    0.0842 C   0  0  0  0  0  0  0  0  0  0  0  0
   -7.5331    0.8935   -0.0029 O   0  0  0  0  0  0  0  0  0  0  0  0
   -1.6180    1.5339    0.2441 H   0  0  0  0  0  0  0  0  0  0  0  0
    0.5091    1.7658    0.0007 H   0  0  0  0  0  0  0  0  0  0  0  0
    2.0005   -1.6268    0.4365 H   0  0  0  0  0  0  0  0  0  0  0  0
    4.3896   -1.9378    0.4877 H   0  0  0  0  0  0  0  0  0  0  0  0
    6.5766   -1.7943   -0.4421 H   0  0  0  0  0  0  0  0  0  0  0  0
    7.9238   -1.0175    0.3985 H   0  0  0  0  0  0  0  0  0  0  0  0
    6.5712   -1.6297    1.3578 H   0  0  0  0  0  0  0  0  0  0  0  0
    5.0182    2.2830    0.0554 H   0  0  0  0  0  0  0  0  0  0  0  0
    3.7512    4.1300    0.7710 H   0  0  0  0  0  0  0  0  0  0  0  0
    3.7793    3.9567   -1.0292 H   0  0  0  0  0  0  0  0  0  0  0  0
    2.5024    4.8801   -0.2294 H   0  0  0  0  0  0  0  0  0  0  0  0
   -2.3290   -5.2180   -0.7191 H   0  0  0  0  0  0  0  0  0  0  0  0
   -4.6189   -4.1715   -0.6796 H   0  0  0  0  0  0  0  0  0  0  0  0
   -5.3807   -0.2622   -1.0353 H   0  0  0  0  0  0  0  0  0  0  0  0
   -5.4076   -0.5125    0.7280 H   0  0  0  0  0  0  0  0  0  0  0  0
   -6.0648    1.8681    1.0528 H   0  0  0  0  0  0  0  0  0  0  0  0
   -6.0395    2.1166   -0.7054 H   0  0  0  0  0  0  0  0  0  0  0  0
   -8.1127    1.6673    0.0981 H   0  0  0  0  0  0  0  0  0  0  0  0
  1  2  1  0
  2  3  1  0
  3  4  1  0
  4  5  2  0
  5  6  1  0
  6  7  2  0
  7  8  1  0
  8  9  1  0
  7 10  1  0
 10 11  2  0
 11 12  1  0
 12 13  1  0
  2 14  2  0
 14 15  1  0
 15 16  2  0
 16 17  1  0
 17 18  2  0
 18 19  1  0
 19 20  2  0
 20 21  1  0
 21 22  2  3
 22 23  1  0
 23 24  1  0
 24 25  1  0
 21  1  1  0
 11  4  1  0
 20 15  1  0
  1 26  1  0
  3 27  1  0
  5 28  1  0
  6 29  1  0
  9 30  1  0
  9 31  1  0
  9 32  1  0
 10 33  1  0
 13 34  1  0
 13 35  1  0
 13 36  1  0
 17 37  1  0
 18 38  1  0
 23 39  1  0
 23 40  1  0
 24 41  1  0
 24 42  1  0
 25 43  1  0
M  END
>  <ScrubInfo>  (3) 
{"isomerGroup": 0, "isomerId": 2, "confId": 0, "nr_conformers:": 1, "nr_isomers:": 9}

$$$$
_i3
     RDKit          3D

 43 45  0  0  0  0  0  0  0  0999 V2000
   -0.4631   -1.0883   -0.1491 N   0  0  0  0  0  0  0  0  0  0  0  0
   -0.3443    0.2024   -0.5815 C   0  0  0  0  0  0  0  0  0  0  0  0
    0.7641    0.8647   -0.7117 N   0  0  0  0  0  0  0  0  0  0  0  0
    1.9797    0.2453   -0.3826 C   0  0  0  0  0  0  0  0  0  0  0  0
    2.7777   -0.2363   -1.4235 C   0  0  0  0  0  0  0  0  0  0  0  0
    3.9734   -0.9060   -1.1533 C   0  0  0  0  0  0  0  0  0  0  0  0
    4.3948   -1.1046    0.1626 C   0  0  0  0  0  0  0  0  0  0  0  0
    5.5724   -1.7881    0.2884 O   0  0  0  0  0  0  0  0  0  0  0  0
    6.0643   -1.9829    1.6088 C   0  0  0  0  0  0  0  0  0  0  0  0
    3.6153   -0.6123    1.2087 C   0  0  0  0  0  0  0  0  0  0  0  0
    2.4296    0.0842    0.9400 C   0  0  0  0  0  0  0  0  0  0  0  0
    1.7389    0.5054    2.0502 O   0  0  0  0  0  0  0  0  0  0  0  0
    1.3494    1.8786    1.9857 C   0  0  0  0  0  0  0  0  0  0  0  0
   -1.4516    0.9435   -0.9338 N   0  0  0  0  0  0  0  0  0  0  0  0
   -2.6398    0.4148   -0.8503 C   0  0  0  0  0  0  0  0  0  0  0  0
   -3.7704    1.1405   -1.1841 N   0  0  0  0  0  0  0  0  0  0  0  0
   -3.7201    2.3560   -1.9881 C   0  0  0  0  0  0  0  0  0  0  0  0
   -3.3424    3.5622   -1.1243 C   0  0  0  0  0  0  0  0  0  0  0  0
   -4.2639    3.6887   -0.0385 O   0  0  0  0  0  0  0  0  0  0  0  0
   -2.8442   -0.9891   -0.3927 C   0  0  0  0  0  0  0  0  0  0  0  0
   -4.1125   -1.4839   -0.3530 N   0  0  0  0  0  0  0  0  0  0  0  0
   -4.1787   -2.7623    0.0800 C   0  0  0  0  0  0  0  0  0  0  0  0
   -3.0496   -3.4892    0.4398 C   0  0  0  0  0  0  0  0  0  0  0  0
   -1.7929   -2.9775    0.3839 N   0  0  0  0  0  0  0  0  0  0  0  0
   -1.7002   -1.6975   -0.0440 C   0  0  0  0  0  0  0  0  0  0  0  0
    0.3379   -1.6262    0.1342 H   0  0  0  0  0  0  0  0  0  0  0  0
    2.4587   -0.0948   -2.4531 H   0  0  0  0  0  0  0  0  0  0  0  0
    4.5786   -1.2786   -1.9764 H   0  0  0  0  0  0  0  0  0  0  0  0
    5.3749   -2.5948    2.1999 H   0  0  0  0  0  0  0  0  0  0  0  0
    7.0117   -2.5256    1.5357 H   0  0  0  0  0  0  0  0  0  0  0  0
    6.2660   -1.0256    2.1008 H   0  0  0  0  0  0  0  0  0  0  0  0
    3.9041   -0.7408    2.2463 H   0  0  0  0  0  0  0  0  0  0  0  0
    2.0283    2.4881    1.3782 H   0  0  0  0  0  0  0  0  0  0  0  0
    0.3203    1.9641    1.6266 H   0  0  0  0  0  0  0  0  0  0  0  0
    1.3738    2.2748    3.0057 H   0  0  0  0  0  0  0  0  0  0  0  0
   -4.6165    0.5807   -1.2877 H   0  0  0  0  0  0  0  0  0  0  0  0
   -4.7209    2.5192   -2.4037 H   0  0  0  0  0  0  0  0  0  0  0  0
   -3.0268    2.2428   -2.8284 H   0  0  0  0  0  0  0  0  0  0  0  0
   -3.3856    4.4817   -1.7153 H   0  0  0  0  0  0  0  0  0  0  0  0
   -2.3357    3.4711   -0.7062 H   0  0  0  0  0  0  0  0  0  0  0  0
   -4.2580    2.8091    0.3863 H   0  0  0  0  0  0  0  0  0  0  0  0
   -5.1705   -3.1985    0.1339 H   0  0  0  0  0  0  0  0  0  0  0  0
   -3.1262   -4.5149    0.7856 H   0  0  0  0  0  0  0  0  0  0  0  0
  1  2  1  0
  2  3  2  3
  3  4  1  0
  4  5  2  0
  5  6  1  0
  6  7  2  0
  7  8  1  0
  8  9  1  0
  7 10  1  0
 10 11  2  0
 11 12  1  0
 12 13  1  0
  2 14  1  0
 14 15  2  0
 15 16  1  0
 16 17  1  0
 17 18  1  0
 18 19  1  0
 15 20  1  0
 20 21  2  0
 21 22  1  0
 22 23  2  0
 23 24  1  0
 24 25  2  0
 25  1  1  0
 11  4  1  0
 25 20  1  0
  1 26  1  0
  5 27  1  0
  6 28  1  0
  9 29  1  0
  9 30  1  0
  9 31  1  0
 10 32  1  0
 13 33  1  0
 13 34  1  0
 13 35  1  0
 16 36  1  0
 17 37  1  0
 17 38  1  0
 18 39  1  0
 18 40  1  0
 19 41  1  0
 22 42  1  0
 23 43  1  0
M  END
>  <ScrubInfo>  (4) 
{"isomerGroup": 0, "isomerId": 3, "confId": 0, "nr_conformers:": 1, "nr_isomers:": 9}

$$$$
_i4
     RDKit          3D

 43 45  0  0  0  0  0  0  0  0999 V2000
   -1.1903   -1.3349    2.8587 N   0  0  0  0  0  0  0  0  0  0  0  0
   -2.2899   -1.9592    3.3828 C   0  0  0  0  0  0  0  0  0  0  0  0
   -3.4986   -1.8294    2.8095 C   0  0  0  0  0  0  0  0  0  0  0  0
   -3.7398   -1.0674    1.6807 N   0  0  0  0  0  0  0  0  0  0  0  0
   -2.6981   -0.4776    1.1463 C   0  0  0  0  0  0  0  0  0  0  0  0
   -2.8737    0.4054   -0.0590 C   0  0  0  0  0  0  0  0  0  0  0  0
   -4.1629    0.6690   -0.4794 N   0  0  0  0  0  0  0  0  0  0  0  0
   -4.4726    1.0996   -1.8318 C   0  0  0  0  0  0  0  0  0  0  0  0
   -4.0084    2.5318   -2.1152 C   0  0  0  0  0  0  0  0  0  0  0  0
   -4.7729    3.1039   -3.1780 O   0  0  0  0  0  0  0  0  0  0  0  0
   -1.8135    0.8748   -0.6269 N   0  0  0  0  0  0  0  0  0  0  0  0
   -0.5750    0.5349   -0.1398 C   0  0  0  0  0  0  0  0  0  0  0  0
    0.3995    0.8831   -0.9178 N   0  0  0  0  0  0  0  0  0  0  0  0
    1.7196    0.5555   -0.5597 C   0  0  0  0  0  0  0  0  0  0  0  0
    2.5477    1.5752   -0.0785 C   0  0  0  0  0  0  0  0  0  0  0  0
    3.8771    1.3187    0.2664 C   0  0  0  0  0  0  0  0  0  0  0  0
    4.3951    0.0333    0.1233 C   0  0  0  0  0  0  0  0  0  0  0  0
    5.6719   -0.3555    0.4285 O   0  0  0  0  0  0  0  0  0  0  0  0
    6.5556    0.6547    0.8989 C   0  0  0  0  0  0  0  0  0  0  0  0
    3.5786   -0.9900   -0.3739 C   0  0  0  0  0  0  0  0  0  0  0  0
    2.2477   -0.7402   -0.7300 C   0  0  0  0  0  0  0  0  0  0  0  0
    1.3857   -1.6881   -1.2280 O   0  0  0  0  0  0  0  0  0  0  0  0
    1.9548   -2.9175   -1.6543 C   0  0  0  0  0  0  0  0  0  0  0  0
   -0.3115   -0.0942    1.0552 N   0  0  0  0  0  0  0  0  0  0  0  0
   -1.2989   -0.6212    1.6922 C   0  0  0  0  0  0  0  0  0  0  0  0
   -0.2692   -1.5226    3.2331 H   0  0  0  0  0  0  0  0  0  0  0  0
   -2.1192   -2.5593    4.2699 H   0  0  0  0  0  0  0  0  0  0  0  0
   -4.3626   -2.3336    3.2355 H   0  0  0  0  0  0  0  0  0  0  0  0
   -4.8520    0.0457   -0.0584 H   0  0  0  0  0  0  0  0  0  0  0  0
   -4.0442    0.4081   -2.5670 H   0  0  0  0  0  0  0  0  0  0  0  0
   -5.5595    1.0429   -1.9654 H   0  0  0  0  0  0  0  0  0  0  0  0
   -2.9562    2.5482   -2.4142 H   0  0  0  0  0  0  0  0  0  0  0  0
   -4.1183    3.1749   -1.2352 H   0  0  0  0  0  0  0  0  0  0  0  0
   -5.6410    3.3416   -2.8098 H   0  0  0  0  0  0  0  0  0  0  0  0
    2.1446    2.5791    0.0256 H   0  0  0  0  0  0  0  0  0  0  0  0
    4.4734    2.1437    0.6398 H   0  0  0  0  0  0  0  0  0  0  0  0
    6.6960    1.4386    0.1473 H   0  0  0  0  0  0  0  0  0  0  0  0
    6.2060    1.0735    1.8482 H   0  0  0  0  0  0  0  0  0  0  0  0
    7.5293    0.1890    1.0795 H   0  0  0  0  0  0  0  0  0  0  0  0
    4.0135   -1.9789   -0.4699 H   0  0  0  0  0  0  0  0  0  0  0  0
    2.3174   -3.4976   -0.7996 H   0  0  0  0  0  0  0  0  0  0  0  0
    1.1656   -3.5006   -2.1388 H   0  0  0  0  0  0  0  0  0  0  0  0
    2.7494   -2.7576   -2.3908 H   0  0  0  0  0  0  0  0  0  0  0  0
  1  2  1  0
  2  3  2  0
  3  4  1  0
  4  5  2  0
  5  6  1  0
  6  7  1  0
  7  8  1  0
  8  9  1  0
  9 10  1  0
  6 11  2  0
 11 12  1  0
 12 13  2  3
 13 14  1  0
 14 15  2  0
 15 16  1  0
 16 17  2  0
 17 18  1  0
 18 19  1  0
 17 20  1  0
 20 21  2  0
 21 22  1  0
 22 23  1  0
 12 24  1  0
 24 25  2  0
 25  1  1  0
 25  5  1  0
 21 14  1  0
  1 26  1  0
  2 27  1  0
  3 28  1  0
  7 29  1  0
  8 30  1  0
  8 31  1  0
  9 32  1  0
  9 33  1  0
 10 34  1  0
 15 35  1  0
 16 36  1  0
 19 37  1  0
 19 38  1  0
 19 39  1  0
 20 40  1  0
 23 41  1  0
 23 42  1  0
 23 43  1  0
M  END
>  <ScrubInfo>  (5) 
{"isomerGroup": 0, "isomerId": 4, "confId": 0, "nr_conformers:": 1, "nr_isomers:": 9}

$$$$
_i5
     RDKit          3D

 43 45  0  0  0  0  0  0  0  0999 V2000
   -1.6523   -1.8242   -0.2168 N   0  0  0  0  0  0  0  0  0  0  0  0
   -0.6769   -0.8878   -0.0319 C   0  0  0  0  0  0  0  0  0  0  0  0
    0.5613   -1.4678    0.0390 N   0  0  0  0  0  0  0  0  0  0  0  0
    1.8329   -0.8769    0.2284 C   0  0  0  0  0  0  0  0  0  0  0  0
    2.0850    0.4913    0.0967 C   0  0  0  0  0  0  0  0  0  0  0  0
    3.3738    1.0100    0.2725 C   0  0  0  0  0  0  0  0  0  0  0  0
    4.4365    0.1631    0.5740 C   0  0  0  0  0  0  0  0  0  0  0  0
    5.7368    0.5425    0.7686 O   0  0  0  0  0  0  0  0  0  0  0  0
    6.0186    1.9341    0.6784 C   0  0  0  0  0  0  0  0  0  0  0  0
    4.2059   -1.2098    0.6948 C   0  0  0  0  0  0  0  0  0  0  0  0
    2.9206   -1.7337    0.5214 C   0  0  0  0  0  0  0  0  0  0  0  0
    2.5931   -3.0700    0.6195 O   0  0  0  0  0  0  0  0  0  0  0  0
    3.6561   -3.9700    0.9129 C   0  0  0  0  0  0  0  0  0  0  0  0
   -0.9173    0.3836    0.0589 N   0  0  0  0  0  0  0  0  0  0  0  0
   -2.2146    0.8561    0.0109 C   0  0  0  0  0  0  0  0  0  0  0  0
   -2.3102    2.0896    0.3569 N   0  0  0  0  0  0  0  0  0  0  0  0
   -3.5451    2.8481    0.5016 C   0  0  0  0  0  0  0  0  0  0  0  0
   -3.8178    3.6963   -0.7454 C   0  0  0  0  0  0  0  0  0  0  0  0
   -4.5027    2.9746   -1.7669 O   0  0  0  0  0  0  0  0  0  0  0  0
   -3.2988   -0.0761   -0.4167 C   0  0  0  0  0  0  0  0  0  0  0  0
   -4.5345    0.3927   -0.7459 N   0  0  0  0  0  0  0  0  0  0  0  0
   -5.4138   -0.5541   -1.1474 C   0  0  0  0  0  0  0  0  0  0  0  0
   -5.0742   -1.8948   -1.2322 C   0  0  0  0  0  0  0  0  0  0  0  0
   -3.8375   -2.3551   -0.9238 N   0  0  0  0  0  0  0  0  0  0  0  0
   -2.9442   -1.4194   -0.5192 C   0  0  0  0  0  0  0  0  0  0  0  0
   -1.4521   -2.7843   -0.4444 H   0  0  0  0  0  0  0  0  0  0  0  0
    0.6077   -2.4587    0.2492 H   0  0  0  0  0  0  0  0  0  0  0  0
    1.2884    1.1880   -0.1494 H   0  0  0  0  0  0  0  0  0  0  0  0
    3.5034    2.0817    0.1623 H   0  0  0  0  0  0  0  0  0  0  0  0
    7.0874    2.0712    0.8692 H   0  0  0  0  0  0  0  0  0  0  0  0
    5.4697    2.4988    1.4393 H   0  0  0  0  0  0  0  0  0  0  0  0
    5.8085    2.3147   -0.3266 H   0  0  0  0  0  0  0  0  0  0  0  0
    5.0554   -1.8433    0.9261 H   0  0  0  0  0  0  0  0  0  0  0  0
    4.0964   -3.7551    1.8921 H   0  0  0  0  0  0  0  0  0  0  0  0
    4.4141   -3.9570    0.1229 H   0  0  0  0  0  0  0  0  0  0  0  0
    3.2356   -4.9795    0.9527 H   0  0  0  0  0  0  0  0  0  0  0  0
   -3.3881    3.5320    1.3443 H   0  0  0  0  0  0  0  0  0  0  0  0
   -4.4026    2.2298    0.7794 H   0  0  0  0  0  0  0  0  0  0  0  0
   -4.4574    4.5434   -0.4783 H   0  0  0  0  0  0  0  0  0  0  0  0
   -2.8896    4.0919   -1.1697 H   0  0  0  0  0  0  0  0  0  0  0  0
   -4.4577    2.0284   -1.5257 H   0  0  0  0  0  0  0  0  0  0  0  0
   -6.4079   -0.2037   -1.4058 H   0  0  0  0  0  0  0  0  0  0  0  0
   -5.7920   -2.6406   -1.5571 H   0  0  0  0  0  0  0  0  0  0  0  0
  1  2  1  0
  2  3  1  0
  3  4  1  0
  4  5  2  0
  5  6  1  0
  6  7  2  0
  7  8  1  0
  8  9  1  0
  7 10  1  0
 10 11  2  0
 11 12  1  0
 12 13  1  0
  2 14  2  0
 14 15  1  0
 15 16  2  3
 16 17  1  0
 17 18  1  0
 18 19  1  0
 15 20  1  0
 20 21  2  0
 21 22  1  0
 22 23  2  0
 23 24  1  0
 24 25  2  0
 25  1  1  0
 11  4  1  0
 25 20  1  0
  1 26  1  0
  3 27  1  0
  5 28  1  0
  6 29  1  0
  9 30  1  0
  9 31  1  0
  9 32  1  0
 10 33  1  0
 13 34  1  0
 13 35  1  0
 13 36  1  0
 17 37  1  0
 17 38  1  0
 18 39  1  0
 18 40  1  0
 19 41  1  0
 22 42  1  0
 23 43  1  0
M  END
>  <ScrubInfo>  (6) 
{"isomerGroup": 0, "isomerId": 5, "confId": 0, "nr_conformers:": 1, "nr_isomers:": 9}

$$$$
_i6
     RDKit          3D

 43 45  0  0  0  0  0  0  0  0999 V2000
    1.8468   -3.1290   -0.6331 N   0  0  0  0  0  0  0  0  0  0  0  0
    3.0742   -3.7306   -0.6541 C   0  0  0  0  0  0  0  0  0  0  0  0
    4.1875   -3.0263   -0.3970 C   0  0  0  0  0  0  0  0  0  0  0  0
    4.1917   -1.6769   -0.1054 N   0  0  0  0  0  0  0  0  0  0  0  0
    3.0341   -1.0653   -0.0732 C   0  0  0  0  0  0  0  0  0  0  0  0
    2.8545    0.3980    0.2135 C   0  0  0  0  0  0  0  0  0  0  0  0
    3.7853    1.2756    0.3675 N   0  0  0  0  0  0  0  0  0  0  0  0
    5.1966    0.9121    0.2601 C   0  0  0  0  0  0  0  0  0  0  0  0
    6.0193    2.1898    0.4444 C   0  0  0  0  0  0  0  0  0  0  0  0
    5.6130    3.1628   -0.5168 O   0  0  0  0  0  0  0  0  0  0  0  0
    1.5902    0.9046    0.3232 N   0  0  0  0  0  0  0  0  0  0  0  0
    0.5472    0.1536    0.1114 C   0  0  0  0  0  0  0  0  0  0  0  0
   -0.6490    0.7924    0.2523 N   0  0  0  0  0  0  0  0  0  0  0  0
   -1.9900    0.3900    0.1117 C   0  0  0  0  0  0  0  0  0  0  0  0
   -2.3928   -0.8978   -0.2503 C   0  0  0  0  0  0  0  0  0  0  0  0
   -3.7492   -1.2289   -0.3692 C   0  0  0  0  0  0  0  0  0  0  0  0
   -4.7300   -0.2719   -0.1258 C   0  0  0  0  0  0  0  0  0  0  0  0
   -6.0816   -0.4664   -0.2067 O   0  0  0  0  0  0  0  0  0  0  0  0
   -6.5247   -1.7659   -0.5779 C   0  0  0  0  0  0  0  0  0  0  0  0
   -4.3480    1.0212    0.2377 C   0  0  0  0  0  0  0  0  0  0  0  0
   -2.9953    1.3567    0.3572 C   0  0  0  0  0  0  0  0  0  0  0  0
   -2.5239    2.6030    0.7094 O   0  0  0  0  0  0  0  0  0  0  0  0
   -3.4919    3.6147    0.9610 C   0  0  0  0  0  0  0  0  0  0  0  0
    0.6089   -1.1739   -0.2249 N   0  0  0  0  0  0  0  0  0  0  0  0
    1.7350   -1.7973   -0.3200 C   0  0  0  0  0  0  0  0  0  0  0  0
    1.0106   -3.6767   -0.7847 H   0  0  0  0  0  0  0  0  0  0  0  0
    3.0862   -4.7905   -0.8837 H   0  0  0  0  0  0  0  0  0  0  0  0
    5.1605   -3.5114   -0.4142 H   0  0  0  0  0  0  0  0  0  0  0  0
    5.4867    0.1956    1.0350 H   0  0  0  0  0  0  0  0  0  0  0  0
    5.4054    0.5089   -0.7370 H   0  0  0  0  0  0  0  0  0  0  0  0
    7.0859    1.9900    0.3085 H   0  0  0  0  0  0  0  0  0  0  0  0
    5.8657    2.6151    1.4416 H   0  0  0  0  0  0  0  0  0  0  0  0
    4.6347    3.1232   -0.4935 H   0  0  0  0  0  0  0  0  0  0  0  0
   -0.5636    1.7718    0.5077 H   0  0  0  0  0  0  0  0  0  0  0  0
   -1.6668   -1.6771   -0.4515 H   0  0  0  0  0  0  0  0  0  0  0  0
   -3.9989   -2.2454   -0.6543 H   0  0  0  0  0  0  0  0  0  0  0  0
   -6.2139   -2.5141    0.1588 H   0  0  0  0  0  0  0  0  0  0  0  0
   -6.1764   -2.0299   -1.5819 H   0  0  0  0  0  0  0  0  0  0  0  0
   -7.6187   -1.7529   -0.5978 H   0  0  0  0  0  0  0  0  0  0  0  0
   -5.1340    1.7459    0.4213 H   0  0  0  0  0  0  0  0  0  0  0  0
   -2.9550    4.5319    1.2217 H   0  0  0  0  0  0  0  0  0  0  0  0
   -4.1283    3.3492    1.8115 H   0  0  0  0  0  0  0  0  0  0  0  0
   -4.0883    3.8217    0.0665 H   0  0  0  0  0  0  0  0  0  0  0  0
  1  2  1  0
  2  3  2  0
  3  4  1  0
  4  5  2  0
  5  6  1  0
  6  7  2  3
  7  8  1  0
  8  9  1  0
  9 10  1  0
  6 11  1  0
 11 12  2  0
 12 13  1  0
 13 14  1  0
 14 15  2  0
 15 16  1  0
 16 17  2  0
 17 18  1  0
 18 19  1  0
 17 20  1  0
 20 21  2  0
 21 22  1  0
 22 23  1  0
 12 24  1  0
 24 25  2  0
 25  1  1  0
 25  5  1  0
 21 14  1  0
  1 26  1  0
  2 27  1  0
  3 28  1  0
  8 29  1  0
  8 30  1  0
  9 31  1  0
  9 32  1  0
 10 33  1  0
 13 34  1  0
 15 35  1  0
 16 36  1  0
 19 37  1  0
 19 38  1  0
 19 39  1  0
 20 40  1  0
 23 41  1  0
 23 42  1  0
 23 43  1  0
M  END
>  <ScrubInfo>  (7) 
{"isomerGroup": 0, "isomerId": 6, "confId": 0, "nr_conformers:": 1, "nr_isomers:": 9}

$$$$
_i7
     RDKit          3D

 43 45  0  0  0  0  0  0  0  0999 V2000
   -0.5203   -1.0324   -0.1371 N   0  0  0  0  0  0  0  0  0  0  0  0
   -0.2895    0.1818   -0.7220 C   0  0  0  0  0  0  0  0  0  0  0  0
    0.8534    0.7754   -0.9097 N   0  0  0  0  0  0  0  0  0  0  0  0
    2.0268    0.1321   -0.4785 C   0  0  0  0  0  0  0  0  0  0  0  0
    2.8351   -0.4804   -1.4390 C   0  0  0  0  0  0  0  0  0  0  0  0
    3.9885   -1.1730   -1.0620 C   0  0  0  0  0  0  0  0  0  0  0  0
    4.3555   -1.2662    0.2819 C   0  0  0  0  0  0  0  0  0  0  0  0
    5.4950   -1.9853    0.5140 O   0  0  0  0  0  0  0  0  0  0  0  0
    5.9177   -2.1018    1.8672 C   0  0  0  0  0  0  0  0  0  0  0  0
    3.5656   -0.6448    1.2480 C   0  0  0  0  0  0  0  0  0  0  0  0
    2.4249    0.0741    0.8690 C   0  0  0  0  0  0  0  0  0  0  0  0
    1.7086    0.6296    1.9010 O   0  0  0  0  0  0  0  0  0  0  0  0
    1.5066    2.0333    1.7338 C   0  0  0  0  0  0  0  0  0  0  0  0
   -1.4250    0.8170   -1.1528 N   0  0  0  0  0  0  0  0  0  0  0  0
   -2.7405    0.4133   -1.0664 C   0  0  0  0  0  0  0  0  0  0  0  0
   -3.7808    1.0485   -1.4917 N   0  0  0  0  0  0  0  0  0  0  0  0
   -3.6627    2.3422   -2.1670 C   0  0  0  0  0  0  0  0  0  0  0  0
   -3.8107    3.4571   -1.1321 C   0  0  0  0  0  0  0  0  0  0  0  0
   -5.0266    3.2840   -0.4085 O   0  0  0  0  0  0  0  0  0  0  0  0
   -2.9416   -0.9107   -0.3866 C   0  0  0  0  0  0  0  0  0  0  0  0
   -4.2034   -1.3902   -0.2215 N   0  0  0  0  0  0  0  0  0  0  0  0
   -4.2707   -2.5822    0.4068 C   0  0  0  0  0  0  0  0  0  0  0  0
   -3.1406   -3.2557    0.8469 C   0  0  0  0  0  0  0  0  0  0  0  0
   -1.8837   -2.7719    0.6820 N   0  0  0  0  0  0  0  0  0  0  0  0
   -1.7893   -1.5751    0.0545 C   0  0  0  0  0  0  0  0  0  0  0  0
    0.2346   -1.5807    0.2475 H   0  0  0  0  0  0  0  0  0  0  0  0
    2.5584   -0.4273   -2.4887 H   0  0  0  0  0  0  0  0  0  0  0  0
    4.6023   -1.6494   -1.8230 H   0  0  0  0  0  0  0  0  0  0  0  0
    6.8360   -2.6967    1.8804 H   0  0  0  0  0  0  0  0  0  0  0  0
    5.1707   -2.6288    2.4699 H   0  0  0  0  0  0  0  0  0  0  0  0
    6.1504   -1.1205    2.2939 H   0  0  0  0  0  0  0  0  0  0  0  0
    3.8114   -0.6892    2.3035 H   0  0  0  0  0  0  0  0  0  0  0  0
    2.3120    2.5160    1.1679 H   0  0  0  0  0  0  0  0  0  0  0  0
    0.5373    2.2239    1.2650 H   0  0  0  0  0  0  0  0  0  0  0  0
    1.4845    2.4846    2.7307 H   0  0  0  0  0  0  0  0  0  0  0  0
   -1.2270    1.7061   -1.5854 H   0  0  0  0  0  0  0  0  0  0  0  0
   -4.4879    2.4069   -2.8855 H   0  0  0  0  0  0  0  0  0  0  0  0
   -2.7381    2.4508   -2.7420 H   0  0  0  0  0  0  0  0  0  0  0  0
   -3.8299    4.4379   -1.6153 H   0  0  0  0  0  0  0  0  0  0  0  0
   -2.9854    3.4373   -0.4134 H   0  0  0  0  0  0  0  0  0  0  0  0
   -5.1394    2.3127   -0.3366 H   0  0  0  0  0  0  0  0  0  0  0  0
   -5.2658   -2.9889    0.5507 H   0  0  0  0  0  0  0  0  0  0  0  0
   -3.2163   -4.2137    1.3503 H   0  0  0  0  0  0  0  0  0  0  0  0
  1  2  1  0
  2  3  2  3
  3  4  1  0
  4  5  2  0
  5  6  1  0
  6  7  2  0
  7  8  1  0
  8  9  1  0
  7 10  1  0
 10 11  2  0
 11 12  1  0
 12 13  1  0
  2 14  1  0
 14 15  1  0
 15 16  2  3
 16 17  1  0
 17 18  1  0
 18 19  1  0
 15 20  1  0
 20 21  2  0
 21 22  1  0
 22 23  2  0
 23 24  1  0
 24 25  2  0
 25  1  1  0
 11  4  1  0
 25 20  1  0
  1 26  1  0
  5 27  1  0
  6 28  1  0
  9 29  1  0
  9 30  1  0
  9 31  1  0
 10 32  1  0
 13 33  1  0
 13 34  1  0
 13 35  1  0
 14 36  1  0
 17 37  1  0
 17 38  1  0
 18 39  1  0
 18 40  1  0
 19 41  1  0
 22 42  1  0
 23 43  1  0
M  END
>  <ScrubInfo>  (8) 
{"isomerGroup": 0, "isomerId": 7, "confId": 0, "nr_conformers:": 1, "nr_isomers:": 9}

$$$$
_i8
     RDKit          3D

 43 45  0  0  0  0  0  0  0  0999 V2000
    1.6375   -2.3435   -0.8948 N   0  0  0  0  0  0  0  0  0  0  0  0
    2.9141   -2.7299   -1.1869 C   0  0  0  0  0  0  0  0  0  0  0  0
    3.9628   -1.9792   -0.8169 C   0  0  0  0  0  0  0  0  0  0  0  0
    3.8547   -0.7872   -0.1309 N   0  0  0  0  0  0  0  0  0  0  0  0
    2.6534   -0.3638    0.1690 C   0  0  0  0  0  0  0  0  0  0  0  0
    2.4141    0.9360    0.9207 C   0  0  0  0  0  0  0  0  0  0  0  0
    3.2936    1.7770    1.3614 N   0  0  0  0  0  0  0  0  0  0  0  0
    4.7245    1.5282    1.1618 C   0  0  0  0  0  0  0  0  0  0  0  0
    5.4974    2.6795    1.8110 C   0  0  0  0  0  0  0  0  0  0  0  0
    5.0849    3.9197    1.2391 O   0  0  0  0  0  0  0  0  0  0  0  0
    1.0888    1.1772    1.1152 N   0  0  0  0  0  0  0  0  0  0  0  0
    0.0263    0.4248    0.7231 C   0  0  0  0  0  0  0  0  0  0  0  0
   -1.1693    0.8615    0.9999 N   0  0  0  0  0  0  0  0  0  0  0  0
   -2.2786    0.1018    0.5832 C   0  0  0  0  0  0  0  0  0  0  0  0
   -2.8431   -0.8062    1.4848 C   0  0  0  0  0  0  0  0  0  0  0  0
   -3.9227   -1.6086    1.1073 C   0  0  0  0  0  0  0  0  0  0  0  0
   -4.4601   -1.5176   -0.1777 C   0  0  0  0  0  0  0  0  0  0  0  0
   -5.5023   -2.3688   -0.4230 O   0  0  0  0  0  0  0  0  0  0  0  0
   -6.0919   -2.3047   -1.7158 C   0  0  0  0  0  0  0  0  0  0  0  0
   -3.9187   -0.6013   -1.0787 C   0  0  0  0  0  0  0  0  0  0  0  0
   -2.8541    0.2257   -0.6942 C   0  0  0  0  0  0  0  0  0  0  0  0
   -2.4111    1.0889   -1.6680 O   0  0  0  0  0  0  0  0  0  0  0  0
   -2.2986    2.4367   -1.2156 C   0  0  0  0  0  0  0  0  0  0  0  0
    0.1986   -0.7634    0.0586 N   0  0  0  0  0  0  0  0  0  0  0  0
    1.3978   -1.1701   -0.2258 C   0  0  0  0  0  0  0  0  0  0  0  0
    0.8509   -2.9041   -1.1965 H   0  0  0  0  0  0  0  0  0  0  0  0
    3.0194   -3.6640   -1.7278 H   0  0  0  0  0  0  0  0  0  0  0  0
    4.9745   -2.2978   -1.0565 H   0  0  0  0  0  0  0  0  0  0  0  0
    5.0367    0.5915    1.6343 H   0  0  0  0  0  0  0  0  0  0  0  0
    4.9543    1.5190    0.0907 H   0  0  0  0  0  0  0  0  0  0  0  0
    6.5733    2.5648    1.6514 H   0  0  0  0  0  0  0  0  0  0  0  0
    5.3045    2.7230    2.8878 H   0  0  0  0  0  0  0  0  0  0  0  0
    4.1118    3.8481    1.1847 H   0  0  0  0  0  0  0  0  0  0  0  0
    0.8522    2.0265    1.6069 H   0  0  0  0  0  0  0  0  0  0  0  0
   -2.4271   -0.8999    2.4838 H   0  0  0  0  0  0  0  0  0  0  0  0
   -4.3414   -2.3158    1.8189 H   0  0  0  0  0  0  0  0  0  0  0  0
   -6.9041   -3.0372   -1.7491 H   0  0  0  0  0  0  0  0  0  0  0  0
   -5.3690   -2.5738   -2.4930 H   0  0  0  0  0  0  0  0  0  0  0  0
   -6.5264   -1.3172   -1.9032 H   0  0  0  0  0  0  0  0  0  0  0  0
   -4.3060   -0.4922   -2.0856 H   0  0  0  0  0  0  0  0  0  0  0  0
   -2.5087    3.0894   -2.0688 H   0  0  0  0  0  0  0  0  0  0  0  0
   -1.2753    2.6434   -0.8902 H   0  0  0  0  0  0  0  0  0  0  0  0
   -3.0173    2.6838   -0.4257 H   0  0  0  0  0  0  0  0  0  0  0  0
  1  2  1  0
  2  3  2  0
  3  4  1  0
  4  5  2  0
  5  6  1  0
  6  7  2  3
  7  8  1  0
  8  9  1  0
  9 10  1  0
  6 11  1  0
 11 12  1  0
 12 13  2  3
 13 14  1  0
 14 15  2  0
 15 16  1  0
 16 17  2  0
 17 18  1  0
 18 19  1  0
 17 20  1  0
 20 21  2  0
 21 22  1  0
 22 23  1  0
 12 24  1  0
 24 25  2  0
 25  1  1  0
 25  5  1  0
 21 14  1  0
  1 26  1  0
  2 27  1  0
  3 28  1  0
  8 29  1  0
  8 30  1  0
  9 31  1  0
  9 32  1  0
 10 33  1  0
 11 34  1  0
 15 35  1  0
 16 36  1  0
 19 37  1  0
 19 38  1  0
 19 39  1  0
 20 40  1  0
 23 41  1  0
 23 42  1  0
 23 43  1  0
M  END
>  <ScrubInfo>  (9) 
{"isomerGroup": 0, "isomerId": 8, "confId": 0, "nr_conformers:": 1, "nr_isomers:": 9}

$$$$
