REMARK SMILES COc1ccc(Nc2nc(NCCO)c3nccnc3n2)c(OC)c1
REMARK SMILES IDX 8 1 9 2 10 3 15 4 16 5 17 6 18 7 19 8 20 9 21 10 7 11 6 13
REMARK SMILES IDX 3 14 4 15 25 16 5 17 22 18 2 19 1 20 23 21 24 22 11 23 12 25
REMARK SMILES IDX 13 26 14 27
REMARK H PARENT 7 12 11 24 14 28
ROOT
ATOM      1  C   UNL     1       0.570   0.301  -0.264  1.00  0.00     0.231 A 
ATOM      2  N   UNL     1       1.765  -0.180   0.090  1.00  0.00    -0.193 NA
ATOM      3  C   UNL     1       2.863   0.419  -0.410  1.00  0.00     0.160 A 
ATOM      4  C   UNL     1       2.804   1.522  -1.259  1.00  0.00     0.150 A 
ATOM      5  N   UNL     1       3.913   2.139  -1.781  1.00  0.00    -0.247 NA
ATOM      6  C   UNL     1       3.682   3.188  -2.591  1.00  0.00     0.132 A 
ATOM      7  C   UNL     1       2.402   3.601  -2.880  1.00  0.00     0.133 A 
ATOM      8  N   UNL     1       1.311   2.984  -2.373  1.00  0.00    -0.233 NA
ATOM      9  C   UNL     1       1.501   1.938  -1.558  1.00  0.00     0.185 A 
ATOM     10  N   UNL     1       0.417   1.344  -1.077  1.00  0.00    -0.191 NA
ENDROOT
BRANCH   1  11
ATOM     11  N   UNL     1      -0.518  -0.366   0.279  1.00  0.00    -0.321 N 
ATOM     12  H   UNL     1      -0.220  -1.123   0.882  1.00  0.00     0.170 HD
BRANCH  11  13
ATOM     13  C   UNL     1      -1.912  -0.219   0.198  1.00  0.00     0.084 A 
ATOM     14  C   UNL     1      -4.730  -0.020   0.106  1.00  0.00     0.122 A 
ATOM     15  C   UNL     1      -3.938   0.869  -0.614  1.00  0.00     0.049 A 
ATOM     16  C   UNL     1      -4.119  -1.013   0.876  1.00  0.00     0.095 A 
ATOM     17  C   UNL     1      -2.542   0.767  -0.567  1.00  0.00     0.034 A 
ATOM     18  C   UNL     1      -2.724  -1.119   0.927  1.00  0.00     0.146 A 
BRANCH  14  19
ATOM     19  O   UNL     1      -6.098  -0.028   0.145  1.00  0.00    -0.497 OA
ATOM     20  C   UNL     1      -6.767   0.966  -0.621  1.00  0.00     0.278 C 
ENDBRANCH  14  19
BRANCH  18  21
ATOM     21  O   UNL     1      -2.034  -2.063   1.657  1.00  0.00    -0.494 OA
ATOM     22  C   UNL     1      -2.808  -2.987   2.412  1.00  0.00     0.278 C 
ENDBRANCH  18  21
ENDBRANCH  11  13
ENDBRANCH   1  11
BRANCH   3  23
ATOM     23  N   UNL     1       4.138  -0.033   0.017  1.00  0.00    -0.366 N 
ATOM     24  H   UNL     1       4.793   0.057  -0.764  1.00  0.00     0.162 HD
BRANCH  23  25
ATOM     25  C   UNL     1       4.160  -1.387   0.570  1.00  0.00     0.142 C 
BRANCH  25  26
ATOM     26  C   UNL     1       5.611  -1.794   0.845  1.00  0.00     0.177 C 
BRANCH  26  27
ATOM     27  O   UNL     1       6.342  -1.850  -0.383  1.00  0.00    -0.395 OA
ATOM     28  H   UNL     1       7.269  -2.029  -0.148  1.00  0.00     0.210 HD
ENDBRANCH  26  27
ENDBRANCH  25  26
ENDBRANCH  23  25
ENDBRANCH   3  23
TORSDOF 8
