_i0
     RDKit          3D

 49 51  0  0  0  0  0  0  0  0999 V2000
    5.3290    1.9505    2.4986 C   0  0  0  0  0  0  0  0  0  0  0  0
    4.5179    2.2724    1.2530 C   0  0  0  0  0  0  0  0  0  0  0  0
    3.8577    1.0460    0.6196 C   0  0  0  0  0  0  0  0  0  0  0  0
    2.7863    0.4083    1.5069 C   0  0  0  0  0  0  0  0  0  0  0  0
    2.0828   -0.7434    0.7851 C   0  0  0  0  0  0  0  0  0  0  0  0
    1.0110   -1.3807    1.6729 C   0  0  0  0  0  0  0  0  0  0  0  0
    0.3737   -2.5114    1.0206 N   0  0  0  0  0  0  0  0  0  0  0  0
   -0.4925   -2.2313   -0.0252 C   0  0  0  0  0  0  0  0  0  0  0  0
   -1.1902   -1.0801   -0.0211 N   0  0  0  0  0  0  0  0  0  0  0  0
   -2.0440   -0.7726   -1.0314 C   0  0  0  0  0  0  0  0  0  0  0  0
   -2.7577    0.4371   -1.0546 N   0  0  0  0  0  0  0  0  0  0  0  0
   -2.8974    1.4708   -0.1012 C   0  0  0  0  0  0  0  0  0  0  0  0
   -2.5088    1.3113    1.2377 C   0  0  0  0  0  0  0  0  0  0  0  0
   -2.6161    2.3548    2.1645 C   0  0  0  0  0  0  0  0  0  0  0  0
   -3.1097    3.5929    1.7720 C   0  0  0  0  0  0  0  0  0  0  0  0
   -3.4973    3.7878    0.4498 C   0  0  0  0  0  0  0  0  0  0  0  0
   -3.3907    2.7412   -0.4816 C   0  0  0  0  0  0  0  0  0  0  0  0
   -3.7973    2.9979   -1.8328 C   0  0  0  0  0  0  0  0  0  0  0  0
   -4.1285    3.1587   -2.9337 N   0  0  0  0  0  0  0  0  0  0  0  0
   -2.1501   -1.7050   -2.0711 C   0  0  0  0  0  0  0  0  0  0  0  0
   -2.8472   -1.8534   -3.2890 C   0  0  0  0  0  0  0  0  0  0  0  0
   -2.5606   -2.9993   -3.9167 N   0  0  0  0  0  0  0  0  0  0  0  0
   -1.6699   -3.5917   -3.0877 N   0  0  0  0  0  0  0  0  0  0  0  0
   -1.1246   -4.8793   -3.4364 C   0  0  0  0  0  0  0  0  0  0  0  0
   -1.3879   -2.8524   -1.9716 C   0  0  0  0  0  0  0  0  0  0  0  0
   -0.5437   -3.1680   -0.9792 N   0  0  0  0  0  0  0  0  0  0  0  0
    5.8532    2.8464    2.8469 H   0  0  0  0  0  0  0  0  0  0  0  0
    4.6895    1.6035    3.3154 H   0  0  0  0  0  0  0  0  0  0  0  0
    6.0775    1.1791    2.2920 H   0  0  0  0  0  0  0  0  0  0  0  0
    3.7563    3.0221    1.4972 H   0  0  0  0  0  0  0  0  0  0  0  0
    5.1850    2.7287    0.5119 H   0  0  0  0  0  0  0  0  0  0  0  0
    3.4007    1.3552   -0.3286 H   0  0  0  0  0  0  0  0  0  0  0  0
    4.6247    0.3018    0.3725 H   0  0  0  0  0  0  0  0  0  0  0  0
    2.0474    1.1665    1.7933 H   0  0  0  0  0  0  0  0  0  0  0  0
    3.2395    0.0296    2.4298 H   0  0  0  0  0  0  0  0  0  0  0  0
    1.6335   -0.3694   -0.1428 H   0  0  0  0  0  0  0  0  0  0  0  0
    2.8194   -1.5030    0.4945 H   0  0  0  0  0  0  0  0  0  0  0  0
    0.2749   -0.6364    1.9999 H   0  0  0  0  0  0  0  0  0  0  0  0
    1.4863   -1.7550    2.5876 H   0  0  0  0  0  0  0  0  0  0  0  0
    0.9935   -3.2489    0.7063 H   0  0  0  0  0  0  0  0  0  0  0  0
   -3.2749    0.5707   -1.9153 H   0  0  0  0  0  0  0  0  0  0  0  0
   -2.1322    0.3577    1.5974 H   0  0  0  0  0  0  0  0  0  0  0  0
   -2.3121    2.1901    3.1958 H   0  0  0  0  0  0  0  0  0  0  0  0
   -3.1916    4.4022    2.4933 H   0  0  0  0  0  0  0  0  0  0  0  0
   -3.8807    4.7604    0.1459 H   0  0  0  0  0  0  0  0  0  0  0  0
   -3.5547   -1.1755   -3.7490 H   0  0  0  0  0  0  0  0  0  0  0  0
   -0.5904   -4.7806   -4.3848 H   0  0  0  0  0  0  0  0  0  0  0  0
   -0.4379   -5.2191   -2.6580 H   0  0  0  0  0  0  0  0  0  0  0  0
   -1.9512   -5.5875   -3.5353 H   0  0  0  0  0  0  0  0  0  0  0  0
  1  2  1  0
  2  3  1  0
  3  4  1  0
  4  5  1  0
  5  6  1  0
  6  7  1  0
  7  8  1  0
  8  9  2  0
  9 10  1  0
 10 11  1  0
 11 12  1  0
 12 13  2  0
 13 14  1  0
 14 15  2  0
 15 16  1  0
 16 17  2  0
 17 18  1  0
 18 19  3  0
 10 20  2  0
 20 21  1  0
 21 22  2  0
 22 23  1  0
 23 24  1  0
 23 25  1  0
 25 26  2  0
 26  8  1  0
 17 12  1  0
 25 20  1  0
  1 27  1  0
  1 28  1  0
  1 29  1  0
  2 30  1  0
  2 31  1  0
  3 32  1  0
  3 33  1  0
  4 34  1  0
  4 35  1  0
  5 36  1  0
  5 37  1  0
  6 38  1  0
  6 39  1  0
  7 40  1  0
 11 41  1  0
 13 42  1  0
 14 43  1  0
 15 44  1  0
 16 45  1  0
 21 46  1  0
 24 47  1  0
 24 48  1  0
 24 49  1  0
M  END
>  <ScrubInfo>  (1) 
{"isomerGroup": 0, "isomerId": 0, "confId": 0, "nr_conformers:": 1, "nr_isomers:": 9}

$$$$
_i1
     RDKit          3D

 49 51  0  0  0  0  0  0  0  0999 V2000
   -1.5811    0.5727    0.7353 N   0  0  0  0  0  0  0  0  0  0  0  0
   -2.8381    0.1008    0.4085 C   0  0  0  0  0  0  0  0  0  0  0  0
   -4.0046    0.8480    0.5479 N   0  0  0  0  0  0  0  0  0  0  0  0
   -4.0437    2.1859    1.0032 C   0  0  0  0  0  0  0  0  0  0  0  0
   -4.2740    3.2091    0.0695 C   0  0  0  0  0  0  0  0  0  0  0  0
   -4.2534    4.5506    0.4572 C   0  0  0  0  0  0  0  0  0  0  0  0
   -3.9961    4.8907    1.7823 C   0  0  0  0  0  0  0  0  0  0  0  0
   -3.7614    3.8887    2.7234 C   0  0  0  0  0  0  0  0  0  0  0  0
   -3.7807    2.5385    2.3425 C   0  0  0  0  0  0  0  0  0  0  0  0
   -3.5785    1.5392    3.3540 C   0  0  0  0  0  0  0  0  0  0  0  0
   -3.4211    0.7523    4.1930 N   0  0  0  0  0  0  0  0  0  0  0  0
   -2.8559   -1.1496   -0.0707 C   0  0  0  0  0  0  0  0  0  0  0  0
   -3.8540   -2.1301   -0.5108 C   0  0  0  0  0  0  0  0  0  0  0  0
   -3.3275   -3.2702   -0.8792 N   0  0  0  0  0  0  0  0  0  0  0  0
   -1.9388   -3.1015   -0.7438 N   0  0  0  0  0  0  0  0  0  0  0  0
   -1.0922   -4.2706   -0.7413 C   0  0  0  0  0  0  0  0  0  0  0  0
   -1.5737   -1.8748   -0.2116 C   0  0  0  0  0  0  0  0  0  0  0  0
   -0.4120   -1.4160    0.1081 N   0  0  0  0  0  0  0  0  0  0  0  0
   -0.4114   -0.1289    0.5973 C   0  0  0  0  0  0  0  0  0  0  0  0
    0.6943    0.4567    0.9174 N   0  0  0  0  0  0  0  0  0  0  0  0
    1.9472   -0.2876    0.7826 C   0  0  0  0  0  0  0  0  0  0  0  0
    2.5384   -0.0557   -0.6069 C   0  0  0  0  0  0  0  0  0  0  0  0
    3.8755   -0.7804   -0.7716 C   0  0  0  0  0  0  0  0  0  0  0  0
    4.4664   -0.5428   -2.1631 C   0  0  0  0  0  0  0  0  0  0  0  0
    5.7526   -1.3315   -2.4183 C   0  0  0  0  0  0  0  0  0  0  0  0
    6.9140   -0.9019   -1.5354 C   0  0  0  0  0  0  0  0  0  0  0  0
   -1.4851    1.5204    1.0642 H   0  0  0  0  0  0  0  0  0  0  0  0
   -4.6854    0.6561   -0.1836 H   0  0  0  0  0  0  0  0  0  0  0  0
   -4.4545    2.9695   -0.9762 H   0  0  0  0  0  0  0  0  0  0  0  0
   -4.4307    5.3317   -0.2791 H   0  0  0  0  0  0  0  0  0  0  0  0
   -3.9788    5.9359    2.0834 H   0  0  0  0  0  0  0  0  0  0  0  0
   -3.5682    4.1658    3.7589 H   0  0  0  0  0  0  0  0  0  0  0  0
   -4.9260   -1.8961   -0.4946 H   0  0  0  0  0  0  0  0  0  0  0  0
   -0.0689   -4.0119   -1.0317 H   0  0  0  0  0  0  0  0  0  0  0  0
   -1.0685   -4.7219    0.2555 H   0  0  0  0  0  0  0  0  0  0  0  0
   -1.4615   -5.0176   -1.4515 H   0  0  0  0  0  0  0  0  0  0  0  0
    1.8335   -1.3574    0.9950 H   0  0  0  0  0  0  0  0  0  0  0  0
    2.6415    0.0924    1.5413 H   0  0  0  0  0  0  0  0  0  0  0  0
    2.6769    1.0203   -0.7708 H   0  0  0  0  0  0  0  0  0  0  0  0
    1.8351   -0.4015   -1.3741 H   0  0  0  0  0  0  0  0  0  0  0  0
    3.7314   -1.8558   -0.6122 H   0  0  0  0  0  0  0  0  0  0  0  0
    4.5716   -0.4273   -0.0026 H   0  0  0  0  0  0  0  0  0  0  0  0
    3.7292   -0.8365   -2.9206 H   0  0  0  0  0  0  0  0  0  0  0  0
    4.6570    0.5278   -2.3065 H   0  0  0  0  0  0  0  0  0  0  0  0
    5.5669   -2.4031   -2.2811 H   0  0  0  0  0  0  0  0  0  0  0  0
    6.0426   -1.1920   -3.4667 H   0  0  0  0  0  0  0  0  0  0  0  0
    7.1015    0.1726   -1.6275 H   0  0  0  0  0  0  0  0  0  0  0  0
    7.8256   -1.4312   -1.8308 H   0  0  0  0  0  0  0  0  0  0  0  0
    6.7247   -1.1320   -0.4829 H   0  0  0  0  0  0  0  0  0  0  0  0
  1  2  1  0
  2  3  1  0
  3  4  1  0
  4  5  2  0
  5  6  1  0
  6  7  2  0
  7  8  1  0
  8  9  2  0
  9 10  1  0
 10 11  3  0
  2 12  2  0
 12 13  1  0
 13 14  2  0
 14 15  1  0
 15 16  1  0
 15 17  1  0
 17 18  2  0
 18 19  1  0
 19 20  2  3
 20 21  1  0
 21 22  1  0
 22 23  1  0
 23 24  1  0
 24 25  1  0
 25 26  1  0
 19  1  1  0
  9  4  1  0
 17 12  1  0
  1 27  1  0
  3 28  1  0
  5 29  1  0
  6 30  1  0
  7 31  1  0
  8 32  1  0
 13 33  1  0
 16 34  1  0
 16 35  1  0
 16 36  1  0
 21 37  1  0
 21 38  1  0
 22 39  1  0
 22 40  1  0
 23 41  1  0
 23 42  1  0
 24 43  1  0
 24 44  1  0
 25 45  1  0
 25 46  1  0
 26 47  1  0
 26 48  1  0
 26 49  1  0
M  END
>  <ScrubInfo>  (2) 
{"isomerGroup": 0, "isomerId": 1, "confId": 0, "nr_conformers:": 1, "nr_isomers:": 9}

$$$$
_i2
     RDKit          3D

 49 51  0  0  0  0  0  0  0  0999 V2000
   -1.6215   -0.4777    0.3235 N   0  0  0  0  0  0  0  0  0  0  0  0
   -0.5040   -1.1689    0.7322 C   0  0  0  0  0  0  0  0  0  0  0  0
    0.6679   -0.4641    0.7063 N   0  0  0  0  0  0  0  0  0  0  0  0
    1.1395    0.1632   -0.5252 C   0  0  0  0  0  0  0  0  0  0  0  0
    2.4170    0.9669   -0.2714 C   0  0  0  0  0  0  0  0  0  0  0  0
    3.6463    0.0801   -0.0448 C   0  0  0  0  0  0  0  0  0  0  0  0
    4.9223    0.8754    0.2500 C   0  0  0  0  0  0  0  0  0  0  0  0
    5.4075    1.7118   -0.9346 C   0  0  0  0  0  0  0  0  0  0  0  0
    6.7379    2.3840   -0.6303 C   0  0  0  0  0  0  0  0  0  0  0  0
   -0.5069   -2.4109    1.1470 N   0  0  0  0  0  0  0  0  0  0  0  0
   -1.7591   -2.9476    1.0920 C   0  0  0  0  0  0  0  0  0  0  0  0
   -2.9308   -2.3361    0.6896 C   0  0  0  0  0  0  0  0  0  0  0  0
   -3.9239   -3.3165    0.8183 C   0  0  0  0  0  0  0  0  0  0  0  0
   -3.4338   -4.4771    1.2741 N   0  0  0  0  0  0  0  0  0  0  0  0
   -2.1095   -4.2259    1.4281 N   0  0  0  0  0  0  0  0  0  0  0  0
   -1.2439   -5.2734    1.9072 C   0  0  0  0  0  0  0  0  0  0  0  0
   -2.9126   -0.9574    0.2720 C   0  0  0  0  0  0  0  0  0  0  0  0
   -4.0269   -0.3925   -0.0563 N   0  0  0  0  0  0  0  0  0  0  0  0
   -4.0023    0.9554   -0.4486 C   0  0  0  0  0  0  0  0  0  0  0  0
   -4.2157    1.9381    0.5271 C   0  0  0  0  0  0  0  0  0  0  0  0
   -4.2120    3.2930    0.1913 C   0  0  0  0  0  0  0  0  0  0  0  0
   -4.0059    3.6814   -1.1299 C   0  0  0  0  0  0  0  0  0  0  0  0
   -3.8091    2.7140   -2.1160 C   0  0  0  0  0  0  0  0  0  0  0  0
   -3.8121    1.3510   -1.7824 C   0  0  0  0  0  0  0  0  0  0  0  0
   -3.5982    0.3844   -2.8193 C   0  0  0  0  0  0  0  0  0  0  0  0
   -3.3818   -0.3580   -3.6854 N   0  0  0  0  0  0  0  0  0  0  0  0
   -1.5024    0.5138    0.2063 H   0  0  0  0  0  0  0  0  0  0  0  0
    1.3886   -1.0722    1.0924 H   0  0  0  0  0  0  0  0  0  0  0  0
    0.3758    0.8502   -0.9069 H   0  0  0  0  0  0  0  0  0  0  0  0
    1.3111   -0.6003   -1.2926 H   0  0  0  0  0  0  0  0  0  0  0  0
    2.2753    1.6321    0.5891 H   0  0  0  0  0  0  0  0  0  0  0  0
    2.5886    1.6030   -1.1470 H   0  0  0  0  0  0  0  0  0  0  0  0
    3.8071   -0.5604   -0.9205 H   0  0  0  0  0  0  0  0  0  0  0  0
    3.4673   -0.5877    0.8055 H   0  0  0  0  0  0  0  0  0  0  0  0
    5.7094    0.1641    0.5303 H   0  0  0  0  0  0  0  0  0  0  0  0
    4.7593    1.5233    1.1199 H   0  0  0  0  0  0  0  0  0  0  0  0
    5.5211    1.0750   -1.8194 H   0  0  0  0  0  0  0  0  0  0  0  0
    4.6738    2.4864   -1.1811 H   0  0  0  0  0  0  0  0  0  0  0  0
    7.5134    1.6414   -0.4168 H   0  0  0  0  0  0  0  0  0  0  0  0
    6.6519    3.0500    0.2342 H   0  0  0  0  0  0  0  0  0  0  0  0
    7.0660    2.9802   -1.4875 H   0  0  0  0  0  0  0  0  0  0  0  0
   -4.9815   -3.2360    0.6029 H   0  0  0  0  0  0  0  0  0  0  0  0
   -0.2144   -4.9135    1.9653 H   0  0  0  0  0  0  0  0  0  0  0  0
   -1.5870   -5.5754    2.8999 H   0  0  0  0  0  0  0  0  0  0  0  0
   -1.3029   -6.1137    1.2107 H   0  0  0  0  0  0  0  0  0  0  0  0
   -4.3958    1.6399    1.5581 H   0  0  0  0  0  0  0  0  0  0  0  0
   -4.3821    4.0429    0.9608 H   0  0  0  0  0  0  0  0  0  0  0  0
   -4.0106    4.7367   -1.3942 H   0  0  0  0  0  0  0  0  0  0  0  0
   -3.6603    3.0277   -3.1483 H   0  0  0  0  0  0  0  0  0  0  0  0
  1  2  1  0
  2  3  1  0
  3  4  1  0
  4  5  1  0
  5  6  1  0
  6  7  1  0
  7  8  1  0
  8  9  1  0
  2 10  2  0
 10 11  1  0
 11 12  2  0
 12 13  1  0
 13 14  2  0
 14 15  1  0
 15 16  1  0
 12 17  1  0
 17 18  2  3
 18 19  1  0
 19 20  2  0
 20 21  1  0
 21 22  2  0
 22 23  1  0
 23 24  2  0
 24 25  1  0
 25 26  3  0
 17  1  1  0
 24 19  1  0
 15 11  1  0
  1 27  1  0
  3 28  1  0
  4 29  1  0
  4 30  1  0
  5 31  1  0
  5 32  1  0
  6 33  1  0
  6 34  1  0
  7 35  1  0
  7 36  1  0
  8 37  1  0
  8 38  1  0
  9 39  1  0
  9 40  1  0
  9 41  1  0
 13 42  1  0
 16 43  1  0
 16 44  1  0
 16 45  1  0
 20 46  1  0
 21 47  1  0
 22 48  1  0
 23 49  1  0
M  END
>  <ScrubInfo>  (3) 
{"isomerGroup": 0, "isomerId": 2, "confId": 0, "nr_conformers:": 1, "nr_isomers:": 9}

$$$$
_i3
     RDKit          3D

 49 51  0  0  0  0  0  0  0  0999 V2000
   -0.1956   -1.1528    0.1837 N   0  0  0  0  0  0  0  0  0  0  0  0
   -0.1795   -0.2924   -0.9033 C   0  0  0  0  0  0  0  0  0  0  0  0
    0.8512    0.0599   -1.5841 N   0  0  0  0  0  0  0  0  0  0  0  0
    2.1760   -0.4653   -1.2832 C   0  0  0  0  0  0  0  0  0  0  0  0
    2.8526    0.4060   -0.2260 C   0  0  0  0  0  0  0  0  0  0  0  0
    4.2129   -0.1313    0.2256 C   0  0  0  0  0  0  0  0  0  0  0  0
    5.2679   -0.1254   -0.8826 C   0  0  0  0  0  0  0  0  0  0  0  0
    6.6328   -0.5634   -0.3495 C   0  0  0  0  0  0  0  0  0  0  0  0
    7.6855   -0.5636   -1.4464 C   0  0  0  0  0  0  0  0  0  0  0  0
   -1.3479    0.2996   -1.3643 N   0  0  0  0  0  0  0  0  0  0  0  0
   -2.4762    0.0617   -0.7606 C   0  0  0  0  0  0  0  0  0  0  0  0
   -3.6690    0.6002   -1.1747 N   0  0  0  0  0  0  0  0  0  0  0  0
   -4.4654    1.4694   -0.3717 C   0  0  0  0  0  0  0  0  0  0  0  0
   -3.9211    2.1646    0.7220 C   0  0  0  0  0  0  0  0  0  0  0  0
   -4.7028    3.0419    1.4784 C   0  0  0  0  0  0  0  0  0  0  0  0
   -6.0373    3.2538    1.1465 C   0  0  0  0  0  0  0  0  0  0  0  0
   -6.5913    2.5941    0.0511 C   0  0  0  0  0  0  0  0  0  0  0  0
   -5.8126    1.7114   -0.7130 C   0  0  0  0  0  0  0  0  0  0  0  0
   -6.4235    1.0575   -1.8352 C   0  0  0  0  0  0  0  0  0  0  0  0
   -6.9256    0.5462   -2.7484 N   0  0  0  0  0  0  0  0  0  0  0  0
   -2.5374   -0.8434    0.3617 C   0  0  0  0  0  0  0  0  0  0  0  0
   -3.5128   -1.3802    1.2145 C   0  0  0  0  0  0  0  0  0  0  0  0
   -2.9869   -2.2099    2.1298 N   0  0  0  0  0  0  0  0  0  0  0  0
   -1.6626   -2.2181    1.8390 N   0  0  0  0  0  0  0  0  0  0  0  0
   -0.7783   -3.0378    2.6273 C   0  0  0  0  0  0  0  0  0  0  0  0
   -1.3688   -1.4115    0.7860 C   0  0  0  0  0  0  0  0  0  0  0  0
    0.6851   -1.5430    0.4809 H   0  0  0  0  0  0  0  0  0  0  0  0
    2.7560   -0.4402   -2.2120 H   0  0  0  0  0  0  0  0  0  0  0  0
    2.1472   -1.5174   -0.9783 H   0  0  0  0  0  0  0  0  0  0  0  0
    2.9651    1.4283   -0.6081 H   0  0  0  0  0  0  0  0  0  0  0  0
    2.2055    0.4801    0.6567 H   0  0  0  0  0  0  0  0  0  0  0  0
    4.0936   -1.1484    0.6184 H   0  0  0  0  0  0  0  0  0  0  0  0
    4.5654    0.4892    1.0590 H   0  0  0  0  0  0  0  0  0  0  0  0
    4.9668   -0.8001   -1.6918 H   0  0  0  0  0  0  0  0  0  0  0  0
    5.3468    0.8814   -1.3103 H   0  0  0  0  0  0  0  0  0  0  0  0
    6.5595   -1.5697    0.0790 H   0  0  0  0  0  0  0  0  0  0  0  0
    6.9525    0.1095    0.4547 H   0  0  0  0  0  0  0  0  0  0  0  0
    7.8058    0.4366   -1.8749 H   0  0  0  0  0  0  0  0  0  0  0  0
    8.6529   -0.8790   -1.0433 H   0  0  0  0  0  0  0  0  0  0  0  0
    7.4125   -1.2524   -2.2523 H   0  0  0  0  0  0  0  0  0  0  0  0
   -3.5092    1.0630   -2.0706 H   0  0  0  0  0  0  0  0  0  0  0  0
   -2.8752    2.0438    0.9981 H   0  0  0  0  0  0  0  0  0  0  0  0
   -4.2633    3.5650    2.3251 H   0  0  0  0  0  0  0  0  0  0  0  0
   -6.6435    3.9378    1.7362 H   0  0  0  0  0  0  0  0  0  0  0  0
   -7.6344    2.7729   -0.2059 H   0  0  0  0  0  0  0  0  0  0  0  0
   -4.5812   -1.2079    1.2189 H   0  0  0  0  0  0  0  0  0  0  0  0
   -1.0785   -4.0817    2.5072 H   0  0  0  0  0  0  0  0  0  0  0  0
    0.2518   -2.9068    2.2894 H   0  0  0  0  0  0  0  0  0  0  0  0
   -0.8654   -2.7324    3.6731 H   0  0  0  0  0  0  0  0  0  0  0  0
  1  2  1  0
  2  3  2  3
  3  4  1  0
  4  5  1  0
  5  6  1  0
  6  7  1  0
  7  8  1  0
  8  9  1  0
  2 10  1  0
 10 11  2  0
 11 12  1  0
 12 13  1  0
 13 14  2  0
 14 15  1  0
 15 16  2  0
 16 17  1  0
 17 18  2  0
 18 19  1  0
 19 20  3  0
 11 21  1  0
 21 22  1  0
 22 23  2  0
 23 24  1  0
 24 25  1  0
 24 26  1  0
 26  1  1  0
 18 13  1  0
 26 21  2  0
  1 27  1  0
  4 28  1  0
  4 29  1  0
  5 30  1  0
  5 31  1  0
  6 32  1  0
  6 33  1  0
  7 34  1  0
  7 35  1  0
  8 36  1  0
  8 37  1  0
  9 38  1  0
  9 39  1  0
  9 40  1  0
 12 41  1  0
 14 42  1  0
 15 43  1  0
 16 44  1  0
 17 45  1  0
 22 46  1  0
 25 47  1  0
 25 48  1  0
 25 49  1  0
M  END
>  <ScrubInfo>  (4) 
{"isomerGroup": 0, "isomerId": 3, "confId": 0, "nr_conformers:": 1, "nr_isomers:": 9}

$$$$
_i4
     RDKit          3D

 49 51  0  0  0  0  0  0  0  0999 V2000
   -4.1936   -2.9820    0.0204 N   0  0  0  0  0  0  0  0  0  0  0  0
   -4.2929   -1.7413    0.6414 C   0  0  0  0  0  0  0  0  0  0  0  0
   -3.2003   -0.9867    0.4691 C   0  0  0  0  0  0  0  0  0  0  0  0
   -2.7508    0.3356    0.8342 C   0  0  0  0  0  0  0  0  0  0  0  0
   -3.4549    1.1290    1.5814 N   0  0  0  0  0  0  0  0  0  0  0  0
   -2.9401    2.4070    1.8680 C   0  0  0  0  0  0  0  0  0  0  0  0
   -2.2671    2.6014    3.0816 C   0  0  0  0  0  0  0  0  0  0  0  0
   -1.7573    3.8550    3.4259 C   0  0  0  0  0  0  0  0  0  0  0  0
   -1.9244    4.9350    2.5625 C   0  0  0  0  0  0  0  0  0  0  0  0
   -2.6062    4.7617    1.3573 C   0  0  0  0  0  0  0  0  0  0  0  0
   -3.1202    3.5031    1.0086 C   0  0  0  0  0  0  0  0  0  0  0  0
   -3.8310    3.3616   -0.2285 C   0  0  0  0  0  0  0  0  0  0  0  0
   -4.4039    3.2918   -1.2370 N   0  0  0  0  0  0  0  0  0  0  0  0
   -1.5265    0.6814    0.3264 N   0  0  0  0  0  0  0  0  0  0  0  0
   -0.8147   -0.1398   -0.3930 C   0  0  0  0  0  0  0  0  0  0  0  0
    0.3786    0.3450   -0.8435 N   0  0  0  0  0  0  0  0  0  0  0  0
    1.4746   -0.5124   -1.2405 C   0  0  0  0  0  0  0  0  0  0  0  0
    2.6217    0.3402   -1.7825 C   0  0  0  0  0  0  0  0  0  0  0  0
    3.7785   -0.4848   -2.3534 C   0  0  0  0  0  0  0  0  0  0  0  0
    4.4543   -1.4506   -1.3753 C   0  0  0  0  0  0  0  0  0  0  0  0
    5.0620   -0.7562   -0.1564 C   0  0  0  0  0  0  0  0  0  0  0  0
    5.8179   -1.7406    0.7229 C   0  0  0  0  0  0  0  0  0  0  0  0
   -1.1601   -1.4287   -0.7118 N   0  0  0  0  0  0  0  0  0  0  0  0
   -2.3027   -1.8557   -0.3003 C   0  0  0  0  0  0  0  0  0  0  0  0
   -2.8972   -3.1073   -0.4767 N   0  0  0  0  0  0  0  0  0  0  0  0
   -2.6886   -3.8564   -1.7017 C   0  0  0  0  0  0  0  0  0  0  0  0
   -4.5328   -3.7538    0.5988 H   0  0  0  0  0  0  0  0  0  0  0  0
   -5.1889   -1.4846    1.1890 H   0  0  0  0  0  0  0  0  0  0  0  0
   -2.1389    1.7620    3.7604 H   0  0  0  0  0  0  0  0  0  0  0  0
   -1.2329    3.9858    4.3692 H   0  0  0  0  0  0  0  0  0  0  0  0
   -1.5292    5.9122    2.8295 H   0  0  0  0  0  0  0  0  0  0  0  0
   -2.7394    5.6125    0.6917 H   0  0  0  0  0  0  0  0  0  0  0  0
    0.6299    1.2096   -0.3801 H   0  0  0  0  0  0  0  0  0  0  0  0
    1.8073   -1.0940   -0.3743 H   0  0  0  0  0  0  0  0  0  0  0  0
    1.1441   -1.2127   -2.0162 H   0  0  0  0  0  0  0  0  0  0  0  0
    2.2400    0.9903   -2.5808 H   0  0  0  0  0  0  0  0  0  0  0  0
    2.9887    1.0146   -0.9995 H   0  0  0  0  0  0  0  0  0  0  0  0
    4.5340    0.2057   -2.7487 H   0  0  0  0  0  0  0  0  0  0  0  0
    3.4118   -1.0622   -3.2113 H   0  0  0  0  0  0  0  0  0  0  0  0
    3.7413   -2.2170   -1.0503 H   0  0  0  0  0  0  0  0  0  0  0  0
    5.2475   -1.9810   -1.9176 H   0  0  0  0  0  0  0  0  0  0  0  0
    5.7471    0.0353   -0.4811 H   0  0  0  0  0  0  0  0  0  0  0  0
    4.2769   -0.2836    0.4435 H   0  0  0  0  0  0  0  0  0  0  0  0
    6.6394   -2.2092    0.1717 H   0  0  0  0  0  0  0  0  0  0  0  0
    5.1535   -2.5305    1.0877 H   0  0  0  0  0  0  0  0  0  0  0  0
    6.2419   -1.2255    1.5906 H   0  0  0  0  0  0  0  0  0  0  0  0
   -3.1599   -4.8420   -1.6296 H   0  0  0  0  0  0  0  0  0  0  0  0
   -3.1167   -3.3276   -2.5597 H   0  0  0  0  0  0  0  0  0  0  0  0
   -1.6197   -4.0097   -1.8818 H   0  0  0  0  0  0  0  0  0  0  0  0
  1  2  1  0
  2  3  2  0
  3  4  1  0
  4  5  2  3
  5  6  1  0
  6  7  2  0
  7  8  1  0
  8  9  2  0
  9 10  1  0
 10 11  2  0
 11 12  1  0
 12 13  3  0
  4 14  1  0
 14 15  2  0
 15 16  1  0
 16 17  1  0
 17 18  1  0
 18 19  1  0
 19 20  1  0
 20 21  1  0
 21 22  1  0
 15 23  1  0
 23 24  2  0
 24 25  1  0
 25 26  1  0
 25  1  1  0
 24  3  1  0
 11  6  1  0
  1 27  1  0
  2 28  1  0
  7 29  1  0
  8 30  1  0
  9 31  1  0
 10 32  1  0
 16 33  1  0
 17 34  1  0
 17 35  1  0
 18 36  1  0
 18 37  1  0
 19 38  1  0
 19 39  1  0
 20 40  1  0
 20 41  1  0
 21 42  1  0
 21 43  1  0
 22 44  1  0
 22 45  1  0
 22 46  1  0
 26 47  1  0
 26 48  1  0
 26 49  1  0
M  END
>  <ScrubInfo>  (5) 
{"isomerGroup": 0, "isomerId": 4, "confId": 0, "nr_conformers:": 1, "nr_isomers:": 9}

$$$$
_i5
     RDKit          3D

 49 51  0  0  0  0  0  0  0  0999 V2000
   -0.5049    2.2000    0.1638 N   0  0  0  0  0  0  0  0  0  0  0  0
   -0.6374    0.8331    0.0713 C   0  0  0  0  0  0  0  0  0  0  0  0
    0.4912    0.1178    0.3543 N   0  0  0  0  0  0  0  0  0  0  0  0
    1.7647    0.4029   -0.2934 C   0  0  0  0  0  0  0  0  0  0  0  0
    2.8266   -0.5733    0.2150 C   0  0  0  0  0  0  0  0  0  0  0  0
    4.1861   -0.2964   -0.4241 C   0  0  0  0  0  0  0  0  0  0  0  0
    5.2614   -1.3381   -0.0962 C   0  0  0  0  0  0  0  0  0  0  0  0
    5.6476   -1.4185    1.3834 C   0  0  0  0  0  0  0  0  0  0  0  0
    4.9218   -2.5259    2.1341 C   0  0  0  0  0  0  0  0  0  0  0  0
   -1.7301    0.1923   -0.2462 N   0  0  0  0  0  0  0  0  0  0  0  0
   -2.8800    0.9215   -0.5222 C   0  0  0  0  0  0  0  0  0  0  0  0
   -4.0101    0.3865   -0.8614 N   0  0  0  0  0  0  0  0  0  0  0  0
   -4.0784   -1.0155   -0.9529 C   0  0  0  0  0  0  0  0  0  0  0  0
   -4.0058   -1.6019   -2.2237 C   0  0  0  0  0  0  0  0  0  0  0  0
   -4.0950   -2.9865   -2.3817 C   0  0  0  0  0  0  0  0  0  0  0  0
   -4.2692   -3.8037   -1.2678 C   0  0  0  0  0  0  0  0  0  0  0  0
   -4.3595   -3.2349    0.0032 C   0  0  0  0  0  0  0  0  0  0  0  0
   -4.2707   -1.8433    0.1657 C   0  0  0  0  0  0  0  0  0  0  0  0
   -4.3827   -1.2924    1.4848 C   0  0  0  0  0  0  0  0  0  0  0  0
   -4.4776   -0.8914    2.5711 N   0  0  0  0  0  0  0  0  0  0  0  0
   -2.7953    2.3543   -0.4142 C   0  0  0  0  0  0  0  0  0  0  0  0
   -3.6797    3.4307   -0.5620 C   0  0  0  0  0  0  0  0  0  0  0  0
   -3.0863    4.6122   -0.3221 N   0  0  0  0  0  0  0  0  0  0  0  0
   -1.8115    4.2754   -0.0021 N   0  0  0  0  0  0  0  0  0  0  0  0
   -0.8752    5.3171    0.3334 C   0  0  0  0  0  0  0  0  0  0  0  0
   -1.6073    2.9341   -0.0661 C   0  0  0  0  0  0  0  0  0  0  0  0
    0.3117    2.5507    0.6454 H   0  0  0  0  0  0  0  0  0  0  0  0
    0.2590   -0.8718    0.2818 H   0  0  0  0  0  0  0  0  0  0  0  0
    1.6522    0.3046   -1.3794 H   0  0  0  0  0  0  0  0  0  0  0  0
    2.0821    1.4291   -0.0779 H   0  0  0  0  0  0  0  0  0  0  0  0
    2.5159   -1.6027   -0.0024 H   0  0  0  0  0  0  0  0  0  0  0  0
    2.8995   -0.4806    1.3046 H   0  0  0  0  0  0  0  0  0  0  0  0
    4.0698   -0.2649   -1.5148 H   0  0  0  0  0  0  0  0  0  0  0  0
    4.5376    0.6975   -0.1201 H   0  0  0  0  0  0  0  0  0  0  0  0
    4.9585   -2.3222   -0.4732 H   0  0  0  0  0  0  0  0  0  0  0  0
    6.1593   -1.0567   -0.6618 H   0  0  0  0  0  0  0  0  0  0  0  0
    6.7224   -1.6285    1.4489 H   0  0  0  0  0  0  0  0  0  0  0  0
    5.4859   -0.4565    1.8825 H   0  0  0  0  0  0  0  0  0  0  0  0
    5.2600   -2.5572    3.1748 H   0  0  0  0  0  0  0  0  0  0  0  0
    5.1303   -3.5024    1.6848 H   0  0  0  0  0  0  0  0  0  0  0  0
    3.8395   -2.3784    2.1390 H   0  0  0  0  0  0  0  0  0  0  0  0
   -3.8772   -0.9669   -3.0969 H   0  0  0  0  0  0  0  0  0  0  0  0
   -4.0322   -3.4230   -3.3754 H   0  0  0  0  0  0  0  0  0  0  0  0
   -4.3412   -4.8819   -1.3889 H   0  0  0  0  0  0  0  0  0  0  0  0
   -4.5041   -3.8801    0.8678 H   0  0  0  0  0  0  0  0  0  0  0  0
   -4.7286    3.4087   -0.8287 H   0  0  0  0  0  0  0  0  0  0  0  0
   -0.8388    6.0297   -0.4946 H   0  0  0  0  0  0  0  0  0  0  0  0
    0.1164    4.8887    0.4943 H   0  0  0  0  0  0  0  0  0  0  0  0
   -1.2207    5.8085    1.2463 H   0  0  0  0  0  0  0  0  0  0  0  0
  1  2  1  0
  2  3  1  0
  3  4  1  0
  4  5  1  0
  5  6  1  0
  6  7  1  0
  7  8  1  0
  8  9  1  0
  2 10  2  0
 10 11  1  0
 11 12  2  3
 12 13  1  0
 13 14  2  0
 14 15  1  0
 15 16  2  0
 16 17  1  0
 17 18  2  0
 18 19  1  0
 19 20  3  0
 11 21  1  0
 21 22  1  0
 22 23  2  0
 23 24  1  0
 24 25  1  0
 24 26  1  0
 26  1  1  0
 18 13  1  0
 26 21  2  0
  1 27  1  0
  3 28  1  0
  4 29  1  0
  4 30  1  0
  5 31  1  0
  5 32  1  0
  6 33  1  0
  6 34  1  0
  7 35  1  0
  7 36  1  0
  8 37  1  0
  8 38  1  0
  9 39  1  0
  9 40  1  0
  9 41  1  0
 14 42  1  0
 15 43  1  0
 16 44  1  0
 17 45  1  0
 22 46  1  0
 25 47  1  0
 25 48  1  0
 25 49  1  0
M  END
>  <ScrubInfo>  (6) 
{"isomerGroup": 0, "isomerId": 5, "confId": 0, "nr_conformers:": 1, "nr_isomers:": 9}

$$$$
_i6
     RDKit          3D

 49 51  0  0  0  0  0  0  0  0999 V2000
   -2.3811   -2.0827   -2.5211 N   0  0  0  0  0  0  0  0  0  0  0  0
   -3.0989   -1.3057   -1.6177 C   0  0  0  0  0  0  0  0  0  0  0  0
   -2.3132   -0.6325   -0.7663 C   0  0  0  0  0  0  0  0  0  0  0  0
   -2.4374    0.3228    0.3319 C   0  0  0  0  0  0  0  0  0  0  0  0
   -3.6336    0.7783    0.8420 N   0  0  0  0  0  0  0  0  0  0  0  0
   -4.7978    0.0033    1.0498 C   0  0  0  0  0  0  0  0  0  0  0  0
   -6.0248    0.6371    0.7817 C   0  0  0  0  0  0  0  0  0  0  0  0
   -7.2422   -0.0079    1.0078 C   0  0  0  0  0  0  0  0  0  0  0  0
   -7.2577   -1.2933    1.5358 C   0  0  0  0  0  0  0  0  0  0  0  0
   -6.0554   -1.9250    1.8506 C   0  0  0  0  0  0  0  0  0  0  0  0
   -4.8254   -1.2813    1.6272 C   0  0  0  0  0  0  0  0  0  0  0  0
   -3.6360   -1.9775    2.0259 C   0  0  0  0  0  0  0  0  0  0  0  0
   -2.6928   -2.5772    2.3375 N   0  0  0  0  0  0  0  0  0  0  0  0
   -1.3467    0.8178    0.8471 N   0  0  0  0  0  0  0  0  0  0  0  0
   -0.1254    0.4055    0.3577 C   0  0  0  0  0  0  0  0  0  0  0  0
    0.8738    1.0085    0.8994 N   0  0  0  0  0  0  0  0  0  0  0  0
    2.2134    0.6339    0.4505 C   0  0  0  0  0  0  0  0  0  0  0  0
    3.2254    1.4631    1.2428 C   0  0  0  0  0  0  0  0  0  0  0  0
    4.6824    1.0750    0.9727 C   0  0  0  0  0  0  0  0  0  0  0  0
    5.1383    1.3866   -0.4552 C   0  0  0  0  0  0  0  0  0  0  0  0
    6.5976    1.0066   -0.7206 C   0  0  0  0  0  0  0  0  0  0  0  0
    7.5976    1.8428    0.0630 C   0  0  0  0  0  0  0  0  0  0  0  0
    0.0965   -0.5421   -0.6168 N   0  0  0  0  0  0  0  0  0  0  0  0
   -0.9520   -1.0585   -1.1571 C   0  0  0  0  0  0  0  0  0  0  0  0
   -1.0389   -2.0259   -2.1584 N   0  0  0  0  0  0  0  0  0  0  0  0
   -0.0208   -2.1330   -3.1852 C   0  0  0  0  0  0  0  0  0  0  0  0
   -2.7675   -3.0215   -2.6462 H   0  0  0  0  0  0  0  0  0  0  0  0
   -4.1779   -1.3052   -1.6711 H   0  0  0  0  0  0  0  0  0  0  0  0
   -3.4618    1.4052    1.6273 H   0  0  0  0  0  0  0  0  0  0  0  0
   -6.0330    1.6473    0.3739 H   0  0  0  0  0  0  0  0  0  0  0  0
   -8.1765    0.4987    0.7762 H   0  0  0  0  0  0  0  0  0  0  0  0
   -8.2041   -1.7976    1.7178 H   0  0  0  0  0  0  0  0  0  0  0  0
   -6.0818   -2.9227    2.2879 H   0  0  0  0  0  0  0  0  0  0  0  0
    2.3985   -0.4316    0.6331 H   0  0  0  0  0  0  0  0  0  0  0  0
    2.3245    0.8394   -0.6199 H   0  0  0  0  0  0  0  0  0  0  0  0
    3.0287    1.3350    2.3152 H   0  0  0  0  0  0  0  0  0  0  0  0
    3.0786    2.5293    1.0296 H   0  0  0  0  0  0  0  0  0  0  0  0
    5.3084    1.6237    1.6853 H   0  0  0  0  0  0  0  0  0  0  0  0
    4.8234    0.0080    1.1827 H   0  0  0  0  0  0  0  0  0  0  0  0
    4.5173    0.8322   -1.1677 H   0  0  0  0  0  0  0  0  0  0  0  0
    4.9914    2.4524   -0.6675 H   0  0  0  0  0  0  0  0  0  0  0  0
    6.7540   -0.0551   -0.4969 H   0  0  0  0  0  0  0  0  0  0  0  0
    6.8000    1.1380   -1.7904 H   0  0  0  0  0  0  0  0  0  0  0  0
    7.5248    1.6544    1.1379 H   0  0  0  0  0  0  0  0  0  0  0  0
    7.4406    2.9115   -0.1136 H   0  0  0  0  0  0  0  0  0  0  0  0
    8.6179    1.5949   -0.2470 H   0  0  0  0  0  0  0  0  0  0  0  0
   -0.2098   -3.0053   -3.8192 H   0  0  0  0  0  0  0  0  0  0  0  0
   -0.0104   -1.2390   -3.8174 H   0  0  0  0  0  0  0  0  0  0  0  0
    0.9695   -2.2556   -2.7349 H   0  0  0  0  0  0  0  0  0  0  0  0
  1  2  1  0
  2  3  2  0
  3  4  1  0
  4  5  1  0
  5  6  1  0
  6  7  2  0
  7  8  1  0
  8  9  2  0
  9 10  1  0
 10 11  2  0
 11 12  1  0
 12 13  3  0
  4 14  2  0
 14 15  1  0
 15 16  2  3
 16 17  1  0
 17 18  1  0
 18 19  1  0
 19 20  1  0
 20 21  1  0
 21 22  1  0
 15 23  1  0
 23 24  2  0
 24 25  1  0
 25 26  1  0
 25  1  1  0
 24  3  1  0
 11  6  1  0
  1 27  1  0
  2 28  1  0
  5 29  1  0
  7 30  1  0
  8 31  1  0
  9 32  1  0
 10 33  1  0
 17 34  1  0
 17 35  1  0
 18 36  1  0
 18 37  1  0
 19 38  1  0
 19 39  1  0
 20 40  1  0
 20 41  1  0
 21 42  1  0
 21 43  1  0
 22 44  1  0
 22 45  1  0
 22 46  1  0
 26 47  1  0
 26 48  1  0
 26 49  1  0
M  END
>  <ScrubInfo>  (7) 
{"isomerGroup": 0, "isomerId": 6, "confId": 0, "nr_conformers:": 1, "nr_isomers:": 9}

$$$$
_i7
     RDKit          3D

 49 51  0  0  0  0  0  0  0  0999 V2000
   -3.4185   -4.1957    0.8472 N   0  0  0  0  0  0  0  0  0  0  0  0
   -3.7793   -2.8551    0.7629 C   0  0  0  0  0  0  0  0  0  0  0  0
   -2.7239   -2.0361    0.6851 C   0  0  0  0  0  0  0  0  0  0  0  0
   -2.4643   -0.5984    0.6124 C   0  0  0  0  0  0  0  0  0  0  0  0
   -3.4671    0.2297    0.5740 N   0  0  0  0  0  0  0  0  0  0  0  0
   -3.2155    1.6091    0.4894 C   0  0  0  0  0  0  0  0  0  0  0  0
   -2.9631    2.3278    1.6657 C   0  0  0  0  0  0  0  0  0  0  0  0
   -2.7051    3.6989    1.6230 C   0  0  0  0  0  0  0  0  0  0  0  0
   -2.7097    4.3701    0.4026 C   0  0  0  0  0  0  0  0  0  0  0  0
   -2.9811    3.6718   -0.7747 C   0  0  0  0  0  0  0  0  0  0  0  0
   -3.2415    2.2940   -0.7359 C   0  0  0  0  0  0  0  0  0  0  0  0
   -3.5215    1.6029   -1.9605 C   0  0  0  0  0  0  0  0  0  0  0  0
   -3.7232    1.0749   -2.9749 N   0  0  0  0  0  0  0  0  0  0  0  0
   -1.1216   -0.3056    0.5977 N   0  0  0  0  0  0  0  0  0  0  0  0
   -0.0855   -1.2110    0.6408 C   0  0  0  0  0  0  0  0  0  0  0  0
    1.1679   -0.9308    0.6552 N   0  0  0  0  0  0  0  0  0  0  0  0
    1.6492    0.4430    0.6475 C   0  0  0  0  0  0  0  0  0  0  0  0
    1.7247    0.9944   -0.7765 C   0  0  0  0  0  0  0  0  0  0  0  0
    2.6095    0.1894   -1.7359 C   0  0  0  0  0  0  0  0  0  0  0  0
    4.0679    0.0077   -1.3052 C   0  0  0  0  0  0  0  0  0  0  0  0
    4.8204    1.3276   -1.1349 C   0  0  0  0  0  0  0  0  0  0  0  0
    6.2889    1.0913   -0.8161 C   0  0  0  0  0  0  0  0  0  0  0  0
   -0.3276   -2.5704    0.6666 N   0  0  0  0  0  0  0  0  0  0  0  0
   -1.5591   -2.9711    0.6695 C   0  0  0  0  0  0  0  0  0  0  0  0
   -2.0389   -4.2829    0.6707 N   0  0  0  0  0  0  0  0  0  0  0  0
   -1.3043   -5.3470    1.3265 C   0  0  0  0  0  0  0  0  0  0  0  0
   -3.9833   -4.8012    0.2467 H   0  0  0  0  0  0  0  0  0  0  0  0
   -4.8249   -2.5811    0.7609 H   0  0  0  0  0  0  0  0  0  0  0  0
   -2.9755    1.8124    2.6238 H   0  0  0  0  0  0  0  0  0  0  0  0
   -2.5114    4.2440    2.5443 H   0  0  0  0  0  0  0  0  0  0  0  0
   -2.5149    5.4401    0.3688 H   0  0  0  0  0  0  0  0  0  0  0  0
   -2.9956    4.2082   -1.7223 H   0  0  0  0  0  0  0  0  0  0  0  0
   -0.8647    0.6643    0.5516 H   0  0  0  0  0  0  0  0  0  0  0  0
    1.0299    1.0956    1.2740 H   0  0  0  0  0  0  0  0  0  0  0  0
    2.6411    0.4630    1.1117 H   0  0  0  0  0  0  0  0  0  0  0  0
    0.7157    1.0363   -1.2050 H   0  0  0  0  0  0  0  0  0  0  0  0
    2.0767    2.0316   -0.7350 H   0  0  0  0  0  0  0  0  0  0  0  0
    2.5894    0.6821   -2.7163 H   0  0  0  0  0  0  0  0  0  0  0  0
    2.1669   -0.8027   -1.8877 H   0  0  0  0  0  0  0  0  0  0  0  0
    4.1171   -0.5723   -0.3765 H   0  0  0  0  0  0  0  0  0  0  0  0
    4.5735   -0.5958   -2.0698 H   0  0  0  0  0  0  0  0  0  0  0  0
    4.7430    1.9219   -2.0525 H   0  0  0  0  0  0  0  0  0  0  0  0
    4.3775    1.9172   -0.3251 H   0  0  0  0  0  0  0  0  0  0  0  0
    6.4018    0.5228    0.1126 H   0  0  0  0  0  0  0  0  0  0  0  0
    6.8088    2.0468   -0.6951 H   0  0  0  0  0  0  0  0  0  0  0  0
    6.7812    0.5366   -1.6212 H   0  0  0  0  0  0  0  0  0  0  0  0
   -1.7839   -6.3130    1.1381 H   0  0  0  0  0  0  0  0  0  0  0  0
   -0.2804   -5.4025    0.9433 H   0  0  0  0  0  0  0  0  0  0  0  0
   -1.2657   -5.1831    2.4085 H   0  0  0  0  0  0  0  0  0  0  0  0
  1  2  1  0
  2  3  2  0
  3  4  1  0
  4  5  2  3
  5  6  1  0
  6  7  2  0
  7  8  1  0
  8  9  2  0
  9 10  1  0
 10 11  2  0
 11 12  1  0
 12 13  3  0
  4 14  1  0
 14 15  1  0
 15 16  2  3
 16 17  1  0
 17 18  1  0
 18 19  1  0
 19 20  1  0
 20 21  1  0
 21 22  1  0
 15 23  1  0
 23 24  2  0
 24 25  1  0
 25 26  1  0
 25  1  1  0
 24  3  1  0
 11  6  1  0
  1 27  1  0
  2 28  1  0
  7 29  1  0
  8 30  1  0
  9 31  1  0
 10 32  1  0
 14 33  1  0
 17 34  1  0
 17 35  1  0
 18 36  1  0
 18 37  1  0
 19 38  1  0
 19 39  1  0
 20 40  1  0
 20 41  1  0
 21 42  1  0
 21 43  1  0
 22 44  1  0
 22 45  1  0
 22 46  1  0
 26 47  1  0
 26 48  1  0
 26 49  1  0
M  END
>  <ScrubInfo>  (8) 
{"isomerGroup": 0, "isomerId": 7, "confId": 0, "nr_conformers:": 1, "nr_isomers:": 9}

$$$$
_i8
     RDKit          3D

 49 51  0  0  0  0  0  0  0  0999 V2000
    0.6238   -1.1090    1.7850 N   0  0  0  0  0  0  0  0  0  0  0  0
    0.0791   -0.8217    0.5424 C   0  0  0  0  0  0  0  0  0  0  0  0
    0.6988   -0.6409   -0.5749 N   0  0  0  0  0  0  0  0  0  0  0  0
    2.1554   -0.7282   -0.5832 C   0  0  0  0  0  0  0  0  0  0  0  0
    2.6682   -0.4380   -1.9944 C   0  0  0  0  0  0  0  0  0  0  0  0
    2.3295    0.9592   -2.5282 C   0  0  0  0  0  0  0  0  0  0  0  0
    2.8308    2.1340   -1.6821 C   0  0  0  0  0  0  0  0  0  0  0  0
    4.3383    2.1647   -1.4207 C   0  0  0  0  0  0  0  0  0  0  0  0
    5.1717    2.2588   -2.6892 C   0  0  0  0  0  0  0  0  0  0  0  0
   -1.2992   -0.7296    0.5450 N   0  0  0  0  0  0  0  0  0  0  0  0
   -2.2148   -0.8744    1.5683 C   0  0  0  0  0  0  0  0  0  0  0  0
   -3.5044   -0.7876    1.5792 N   0  0  0  0  0  0  0  0  0  0  0  0
   -4.1643   -0.4859    0.3768 C   0  0  0  0  0  0  0  0  0  0  0  0
   -4.4968   -1.5324   -0.4939 C   0  0  0  0  0  0  0  0  0  0  0  0
   -5.1584   -1.2787   -1.6966 C   0  0  0  0  0  0  0  0  0  0  0  0
   -5.5068    0.0259   -2.0371 C   0  0  0  0  0  0  0  0  0  0  0  0
   -5.2000    1.0763   -1.1711 C   0  0  0  0  0  0  0  0  0  0  0  0
   -4.5354    0.8254    0.0387 C   0  0  0  0  0  0  0  0  0  0  0  0
   -4.2367    1.9257    0.9083 C   0  0  0  0  0  0  0  0  0  0  0  0
   -3.9956    2.8477    1.5719 N   0  0  0  0  0  0  0  0  0  0  0  0
   -1.5485   -1.1755    2.8128 C   0  0  0  0  0  0  0  0  0  0  0  0
   -1.9660   -1.4204    4.1291 C   0  0  0  0  0  0  0  0  0  0  0  0
   -0.9350   -1.6669    4.9518 N   0  0  0  0  0  0  0  0  0  0  0  0
    0.1531   -1.5574    4.1517 N   0  0  0  0  0  0  0  0  0  0  0  0
    1.4605   -1.7533    4.7250 C   0  0  0  0  0  0  0  0  0  0  0  0
   -0.1793   -1.2747    2.8612 C   0  0  0  0  0  0  0  0  0  0  0  0
    1.6299   -1.1865    1.8412 H   0  0  0  0  0  0  0  0  0  0  0  0
    2.4708   -1.7407   -0.3036 H   0  0  0  0  0  0  0  0  0  0  0  0
    2.5983   -0.0254    0.1308 H   0  0  0  0  0  0  0  0  0  0  0  0
    2.2438   -1.1773   -2.6859 H   0  0  0  0  0  0  0  0  0  0  0  0
    3.7538   -0.5872   -2.0155 H   0  0  0  0  0  0  0  0  0  0  0  0
    1.2410    1.0509   -2.6314 H   0  0  0  0  0  0  0  0  0  0  0  0
    2.7300    1.0479   -3.5453 H   0  0  0  0  0  0  0  0  0  0  0  0
    2.3075    2.1384   -0.7186 H   0  0  0  0  0  0  0  0  0  0  0  0
    2.5405    3.0659   -2.1839 H   0  0  0  0  0  0  0  0  0  0  0  0
    4.5608    3.0365   -0.7935 H   0  0  0  0  0  0  0  0  0  0  0  0
    4.6455    1.2847   -0.8454 H   0  0  0  0  0  0  0  0  0  0  0  0
    5.0738    1.3576   -3.3015 H   0  0  0  0  0  0  0  0  0  0  0  0
    6.2305    2.3733   -2.4353 H   0  0  0  0  0  0  0  0  0  0  0  0
    4.8731    3.1219   -3.2924 H   0  0  0  0  0  0  0  0  0  0  0  0
   -1.6716   -0.5230   -0.3695 H   0  0  0  0  0  0  0  0  0  0  0  0
   -4.2417   -2.5556   -0.2263 H   0  0  0  0  0  0  0  0  0  0  0  0
   -5.4086   -2.1016   -2.3624 H   0  0  0  0  0  0  0  0  0  0  0  0
   -6.0262    0.2245   -2.9721 H   0  0  0  0  0  0  0  0  0  0  0  0
   -5.4861    2.0916   -1.4415 H   0  0  0  0  0  0  0  0  0  0  0  0
   -2.9741   -1.4330    4.5236 H   0  0  0  0  0  0  0  0  0  0  0  0
    1.5269   -1.1742    5.6498 H   0  0  0  0  0  0  0  0  0  0  0  0
    2.2279   -1.4127    4.0268 H   0  0  0  0  0  0  0  0  0  0  0  0
    1.5862   -2.8189    4.9316 H   0  0  0  0  0  0  0  0  0  0  0  0
  1  2  1  0
  2  3  2  3
  3  4  1  0
  4  5  1  0
  5  6  1  0
  6  7  1  0
  7  8  1  0
  8  9  1  0
  2 10  1  0
 10 11  1  0
 11 12  2  3
 12 13  1  0
 13 14  2  0
 14 15  1  0
 15 16  2  0
 16 17  1  0
 17 18  2  0
 18 19  1  0
 19 20  3  0
 11 21  1  0
 21 22  1  0
 22 23  2  0
 23 24  1  0
 24 25  1  0
 24 26  1  0
 26  1  1  0
 18 13  1  0
 26 21  2  0
  1 27  1  0
  4 28  1  0
  4 29  1  0
  5 30  1  0
  5 31  1  0
  6 32  1  0
  6 33  1  0
  7 34  1  0
  7 35  1  0
  8 36  1  0
  8 37  1  0
  9 38  1  0
  9 39  1  0
  9 40  1  0
 10 41  1  0
 14 42  1  0
 15 43  1  0
 16 44  1  0
 17 45  1  0
 22 46  1  0
 25 47  1  0
 25 48  1  0
 25 49  1  0
M  END
>  <ScrubInfo>  (9) 
{"isomerGroup": 0, "isomerId": 8, "confId": 0, "nr_conformers:": 1, "nr_isomers:": 9}

$$$$
