REMARK SMILES CCCCCCNc1nc(Nc2ccccc2C#N)c2cnn(C)c2n1
REMARK SMILES IDX 6 1 5 2 4 3 3 4 2 5 1 6 7 7 8 9 9 10 26 11 10 12 25 13 20 14
REMARK SMILES IDX 23 15 21 16 22 17 24 18 11 19 12 21 13 22 17 23 14 24 16 25
REMARK SMILES IDX 15 26 18 27 19 28
REMARK H PARENT 7 8 11 20
ROOT
ATOM      1  C   UNL     1       1.011  -1.381   1.673  1.00  0.00     0.116 C 
ENDROOT
BRANCH   1   2
ATOM      2  C   UNL     1       2.083  -0.743   0.785  1.00  0.00     0.021 C 
BRANCH   2   3
ATOM      3  C   UNL     1       2.786   0.408   1.507  1.00  0.00     0.002 C 
BRANCH   3   4
ATOM      4  C   UNL     1       3.858   1.046   0.620  1.00  0.00    -0.000 C 
BRANCH   4   5
ATOM      5  C   UNL     1       4.518   2.272   1.253  1.00  0.00    -0.003 C 
ATOM      6  C   UNL     1       5.329   1.950   2.499  1.00  0.00     0.004 C 
ENDBRANCH   4   5
ENDBRANCH   3   4
ENDBRANCH   2   3
ENDBRANCH   1   2
BRANCH   1   7
ATOM      7  N   UNL     1       0.374  -2.511   1.021  1.00  0.00    -0.354 N 
ATOM      8  H   UNL     1       0.994  -3.249   0.706  1.00  0.00     0.163 HD
BRANCH   7   9
ATOM      9  C   UNL     1      -0.492  -2.231  -0.025  1.00  0.00     0.226 A 
ATOM     10  N   UNL     1      -1.190  -1.080  -0.021  1.00  0.00    -0.195 NA
ATOM     11  N   UNL     1      -0.544  -3.168  -0.979  1.00  0.00    -0.193 NA
ATOM     12  C   UNL     1      -2.044  -0.773  -1.031  1.00  0.00     0.147 A 
ATOM     13  C   UNL     1      -1.388  -2.852  -1.972  1.00  0.00     0.165 A 
ATOM     14  C   UNL     1      -2.150  -1.705  -2.071  1.00  0.00     0.082 A 
ATOM     15  N   UNL     1      -1.670  -3.592  -3.088  1.00  0.00    -0.250 N 
ATOM     16  C   UNL     1      -2.847  -1.853  -3.289  1.00  0.00     0.149 A 
ATOM     17  N   UNL     1      -2.561  -2.999  -3.917  1.00  0.00    -0.179 NA
ATOM     18  C   UNL     1      -1.125  -4.879  -3.436  1.00  0.00     0.176 C 
BRANCH  12  19
ATOM     19  N   UNL     1      -2.758   0.437  -1.055  1.00  0.00    -0.338 N 
ATOM     20  H   UNL     1      -3.275   0.571  -1.915  1.00  0.00     0.168 HD
BRANCH  19  21
ATOM     21  C   UNL     1      -2.897   1.471  -0.101  1.00  0.00     0.058 A 
ATOM     22  C   UNL     1      -2.509   1.311   1.238  1.00  0.00     0.027 A 
ATOM     23  C   UNL     1      -3.391   2.741  -0.482  1.00  0.00     0.076 A 
ATOM     24  C   UNL     1      -2.616   2.355   2.164  1.00  0.00     0.002 A 
ATOM     25  C   UNL     1      -3.497   3.788   0.450  1.00  0.00     0.021 A 
ATOM     26  C   UNL     1      -3.110   3.593   1.772  1.00  0.00     0.002 A 
BRANCH  23  27
ATOM     27  C   UNL     1      -3.797   2.998  -1.833  1.00  0.00     0.101 C 
ATOM     28  N   UNL     1      -4.128   3.159  -2.934  1.00  0.00    -0.192 NA
ENDBRANCH  23  27
ENDBRANCH  19  21
ENDBRANCH  12  19
ENDBRANCH   7   9
ENDBRANCH   1   7
TORSDOF 9
