REMARK SMILES Cn1ncc2c(Nc3ccc(F)c(F)c3F)nc(NCC[NH+](C)C)nc21
REMARK SMILES IDX 19 1 20 3 21 4 22 5 23 6 24 7 18 9 17 10 25 11 6 12 26 13
REMARK SMILES IDX 5 14 2 15 4 16 3 17 1 18 7 19 8 21 9 22 15 23 10 24 13 25
REMARK SMILES IDX 11 26 16 27 14 28 12 29
REMARK H PARENT 19 2 22 8 7 20
ROOT
ATOM      1  N   UNL     1       0.937   0.922  -1.003  1.00  0.00    -0.348 N 
ATOM      2  H   UNL     1       0.287   1.712  -0.977  1.00  0.00     0.163 HD
ENDROOT
BRANCH   1   3
ATOM      3  C   UNL     1       2.108   1.080  -0.159  1.00  0.00     0.177 C 
BRANCH   3   4
ATOM      4  C   UNL     1       3.298   0.265  -0.705  1.00  0.00     0.283 C 
BRANCH   4   5
ATOM      5  N   UNL     1       4.596   0.472   0.062  1.00  0.00    -0.338 N 
ATOM      6  C   UNL     1       4.537  -0.015   1.482  1.00  0.00     0.332 C 
ATOM      7  C   UNL     1       5.156   1.861  -0.050  1.00  0.00     0.332 C 
ATOM      8  H   UNL     1       5.274  -0.138  -0.414  1.00  0.00     0.347 HD
ENDBRANCH   4   5
ENDBRANCH   3   4
ENDBRANCH   1   3
BRANCH   1   9
ATOM      9  C   UNL     1       0.116  -0.147  -0.645  1.00  0.00     0.226 A 
ATOM     10  N   UNL     1      -1.188   0.153  -0.638  1.00  0.00    -0.195 NA
ATOM     11  N   UNL     1       0.660  -1.331  -0.327  1.00  0.00    -0.193 NA
ATOM     12  C   UNL     1      -2.114  -0.766  -0.265  1.00  0.00     0.147 A 
ATOM     13  C   UNL     1      -0.274  -2.248  -0.014  1.00  0.00     0.165 A 
ATOM     14  C   UNL     1      -1.643  -2.046   0.041  1.00  0.00     0.082 A 
ATOM     15  N   UNL     1      -0.079  -3.563   0.313  1.00  0.00    -0.250 N 
ATOM     16  C   UNL     1      -2.167  -3.293   0.438  1.00  0.00     0.149 A 
ATOM     17  N   UNL     1      -1.221  -4.221   0.608  1.00  0.00    -0.179 NA
ATOM     18  C   UNL     1       1.173  -4.275   0.365  1.00  0.00     0.176 C 
BRANCH  12  19
ATOM     19  N   UNL     1      -3.476  -0.442  -0.242  1.00  0.00    -0.337 N 
ATOM     20  H   UNL     1      -4.103  -1.235  -0.203  1.00  0.00     0.168 HD
BRANCH  19  21
ATOM     21  C   UNL     1      -4.106   0.816  -0.308  1.00  0.00     0.079 A 
ATOM     22  C   UNL     1      -5.376   0.889  -0.912  1.00  0.00     0.032 A 
ATOM     23  C   UNL     1      -3.517   2.019   0.124  1.00  0.00     0.185 A 
ATOM     24  C   UNL     1      -6.030   2.115  -1.074  1.00  0.00     0.045 A 
ATOM     25  C   UNL     1      -4.168   3.238  -0.039  1.00  0.00     0.196 A 
ATOM     26  C   UNL     1      -5.417   3.283  -0.638  1.00  0.00     0.162 A 
ATOM     27  F   UNL     1      -2.339   2.018   0.769  1.00  0.00    -0.201 F 
ATOM     28  F   UNL     1      -3.587   4.368   0.391  1.00  0.00    -0.200 F 
ATOM     29  F   UNL     1      -6.047   4.455  -0.798  1.00  0.00    -0.204 F 
ENDBRANCH  19  21
ENDBRANCH  12  19
ENDBRANCH   1   9
TORSDOF 6
