_i0
     RDKit          3D

 45 47  0  0  0  0  0  0  0  0999 V2000
    4.5374   -0.0151    1.4817 C   0  0  0  0  0  0  0  0  0  0  0  0
    4.5956    0.4720    0.0625 N   0  0  0  0  0  4  0  0  0  0  0  0
    5.1559    1.8606   -0.0503 C   0  0  0  0  0  0  0  0  0  0  0  0
    3.2979    0.2648   -0.7053 C   0  0  0  0  0  0  0  0  0  0  0  0
    2.1077    1.0803   -0.1590 C   0  0  0  0  0  0  0  0  0  0  0  0
    0.9366    0.9222   -1.0033 N   0  0  0  0  0  0  0  0  0  0  0  0
    0.1155   -0.1470   -0.6455 C   0  0  0  0  0  0  0  0  0  0  0  0
   -1.1881    0.1529   -0.6382 N   0  0  0  0  0  0  0  0  0  0  0  0
    0.6598   -1.3311   -0.3270 N   0  0  0  0  0  0  0  0  0  0  0  0
   -2.1144   -0.7662   -0.2650 C   0  0  0  0  0  0  0  0  0  0  0  0
   -0.2744   -2.2477   -0.0137 C   0  0  0  0  0  0  0  0  0  0  0  0
   -3.4764   -0.4423   -0.2422 N   0  0  0  0  0  0  0  0  0  0  0  0
   -1.6427   -2.0465    0.0414 C   0  0  0  0  0  0  0  0  0  0  0  0
   -0.0794   -3.5635    0.3134 N   0  0  0  0  0  0  0  0  0  0  0  0
   -4.1063    0.8159   -0.3078 C   0  0  0  0  0  0  0  0  0  0  0  0
   -2.1675   -3.2933    0.4383 C   0  0  0  0  0  0  0  0  0  0  0  0
   -1.2209   -4.2213    0.6078 N   0  0  0  0  0  0  0  0  0  0  0  0
    1.1725   -4.2752    0.3650 C   0  0  0  0  0  0  0  0  0  0  0  0
   -5.3760    0.8892   -0.9117 C   0  0  0  0  0  0  0  0  0  0  0  0
   -3.5172    2.0189    0.1239 C   0  0  0  0  0  0  0  0  0  0  0  0
   -6.0303    2.1152   -1.0736 C   0  0  0  0  0  0  0  0  0  0  0  0
   -4.1680    3.2382   -0.0393 C   0  0  0  0  0  0  0  0  0  0  0  0
   -2.3390    2.0182    0.7692 F   0  0  0  0  0  0  0  0  0  0  0  0
   -5.4173    3.2832   -0.6376 C   0  0  0  0  0  0  0  0  0  0  0  0
   -3.5872    4.3682    0.3909 F   0  0  0  0  0  0  0  0  0  0  0  0
   -6.0468    4.4545   -0.7981 F   0  0  0  0  0  0  0  0  0  0  0  0
    4.1451   -1.0353    1.4776 H   0  0  0  0  0  0  0  0  0  0  0  0
    5.5558   -0.0090    1.8795 H   0  0  0  0  0  0  0  0  0  0  0  0
    3.8955    0.6530    2.0606 H   0  0  0  0  0  0  0  0  0  0  0  0
    5.2738   -0.1382   -0.4136 H   0  0  0  0  0  0  0  0  0  0  0  0
    5.1841    2.1335   -1.1082 H   0  0  0  0  0  0  0  0  0  0  0  0
    6.1702    1.8459    0.3576 H   0  0  0  0  0  0  0  0  0  0  0  0
    4.5243    2.5466    0.5189 H   0  0  0  0  0  0  0  0  0  0  0  0
    3.1062   -0.8123   -0.6846 H   0  0  0  0  0  0  0  0  0  0  0  0
    3.5085    0.5372   -1.7464 H   0  0  0  0  0  0  0  0  0  0  0  0
    1.8900    0.8274    0.8859 H   0  0  0  0  0  0  0  0  0  0  0  0
    2.3712    2.1435   -0.1698 H   0  0  0  0  0  0  0  0  0  0  0  0
    0.2874    1.7122   -0.9766 H   0  0  0  0  0  0  0  0  0  0  0  0
   -4.1029   -1.2352   -0.2029 H   0  0  0  0  0  0  0  0  0  0  0  0
   -3.1997   -3.5688    0.6138 H   0  0  0  0  0  0  0  0  0  0  0  0
    1.3120   -4.6537    1.3808 H   0  0  0  0  0  0  0  0  0  0  0  0
    1.1286   -5.1016   -0.3489 H   0  0  0  0  0  0  0  0  0  0  0  0
    1.9940   -3.6040    0.1044 H   0  0  0  0  0  0  0  0  0  0  0  0
   -5.8625   -0.0116   -1.2813 H   0  0  0  0  0  0  0  0  0  0  0  0
   -7.0084    2.1654   -1.5440 H   0  0  0  0  0  0  0  0  0  0  0  0
  1  2  1  0
  2  3  1  0
  2  4  1  0
  4  5  1  0
  5  6  1  0
  6  7  1  0
  7  8  2  0
  9  7  1  0
  8 10  1  0
 11  9  2  0
 10 12  1  0
 10 13  2  0
 14 11  1  0
 11 13  1  0
 12 15  1  0
 13 16  1  0
 17 14  1  0
 14 18  1  0
 15 19  2  0
 20 15  1  0
 16 17  2  0
 19 21  1  0
 22 20  2  0
 20 23  1  0
 21 24  2  0
 24 22  1  0
 22 25  1  0
 24 26  1  0
  1 27  1  0
  1 28  1  0
  1 29  1  0
  2 30  1  0
  3 31  1  0
  3 32  1  0
  3 33  1  0
  4 34  1  0
  4 35  1  0
  5 36  1  0
  5 37  1  0
  6 38  1  0
 12 39  1  0
 16 40  1  0
 18 41  1  0
 18 42  1  0
 18 43  1  0
 19 44  1  0
 21 45  1  0
M  CHG  1   2   1
M  END
>  <ScrubInfo>  (1) 
{"isomerGroup": 0, "isomerId": 0, "confId": 0, "nr_conformers:": 1, "nr_isomers:": 9}

$$$$
_i1
     RDKit          3D

 45 47  0  0  0  0  0  0  0  0999 V2000
   -1.1360   -0.1599   -0.2692 N   0  0  0  0  0  0  0  0  0  0  0  0
   -2.2886    0.6048   -0.2225 C   0  0  0  0  0  0  0  0  0  0  0  0
   -3.5400    0.1043   -0.5190 N   0  0  0  0  0  0  0  0  0  0  0  0
   -4.0425   -1.2114   -0.4429 C   0  0  0  0  0  0  0  0  0  0  0  0
   -3.4276   -2.2381    0.2872 C   0  0  0  0  0  0  0  0  0  0  0  0
   -3.9549   -3.5355    0.2795 C   0  0  0  0  0  0  0  0  0  0  0  0
   -5.0971   -3.8163   -0.4642 C   0  0  0  0  0  0  0  0  0  0  0  0
   -5.5873   -5.0626   -0.4643 F   0  0  0  0  0  0  0  0  0  0  0  0
   -5.7226   -2.8181   -1.1933 C   0  0  0  0  0  0  0  0  0  0  0  0
   -6.8228   -3.0902   -1.9081 F   0  0  0  0  0  0  0  0  0  0  0  0
   -5.1983   -1.5317   -1.1809 C   0  0  0  0  0  0  0  0  0  0  0  0
   -5.8032   -0.5627   -1.8881 F   0  0  0  0  0  0  0  0  0  0  0  0
   -2.0925    1.8928    0.0884 C   0  0  0  0  0  0  0  0  0  0  0  0
   -2.9067    3.0951    0.3025 C   0  0  0  0  0  0  0  0  0  0  0  0
   -2.1968    4.1337    0.6621 N   0  0  0  0  0  0  0  0  0  0  0  0
   -0.8630    3.6989    0.6633 N   0  0  0  0  0  0  0  0  0  0  0  0
    0.1312    4.5269    1.3013 C   0  0  0  0  0  0  0  0  0  0  0  0
   -0.7128    2.3548    0.3674 C   0  0  0  0  0  0  0  0  0  0  0  0
    0.3490    1.6202    0.3258 N   0  0  0  0  0  0  0  0  0  0  0  0
    0.1302    0.3146   -0.0523 C   0  0  0  0  0  0  0  0  0  0  0  0
    1.1399   -0.4789   -0.2221 N   0  0  0  0  0  0  0  0  0  0  0  0
    2.4656    0.0954    0.0136 C   0  0  0  0  0  0  0  0  0  0  0  0
    3.5166   -0.9827   -0.2759 C   0  0  0  0  0  0  0  0  0  0  0  0
    4.9278   -0.4195   -0.2629 N   0  0  0  0  0  4  0  0  0  0  0  0
    5.3763    0.0290    1.0998 C   0  0  0  0  0  0  0  0  0  0  0  0
    5.9030   -1.3943   -0.8645 C   0  0  0  0  0  0  0  0  0  0  0  0
   -1.2157   -1.0752   -0.6867 H   0  0  0  0  0  0  0  0  0  0  0  0
   -4.2598    0.7867   -0.7562 H   0  0  0  0  0  0  0  0  0  0  0  0
   -2.5585   -2.0418    0.9097 H   0  0  0  0  0  0  0  0  0  0  0  0
   -3.4874   -4.3282    0.8576 H   0  0  0  0  0  0  0  0  0  0  0  0
   -3.9980    3.0733    0.1873 H   0  0  0  0  0  0  0  0  0  0  0  0
   -0.0837    5.5880    1.1384 H   0  0  0  0  0  0  0  0  0  0  0  0
    1.1273    4.3223    0.8960 H   0  0  0  0  0  0  0  0  0  0  0  0
    0.1486    4.3381    2.3792 H   0  0  0  0  0  0  0  0  0  0  0  0
    2.6392    0.9511   -0.6506 H   0  0  0  0  0  0  0  0  0  0  0  0
    2.5542    0.4244    1.0551 H   0  0  0  0  0  0  0  0  0  0  0  0
    3.4739   -1.7997    0.4535 H   0  0  0  0  0  0  0  0  0  0  0  0
    3.3519   -1.3989   -1.2767 H   0  0  0  0  0  0  0  0  0  0  0  0
    4.9254    0.4078   -0.8745 H   0  0  0  0  0  0  0  0  0  0  0  0
    4.7322    0.8480    1.4262 H   0  0  0  0  0  0  0  0  0  0  0  0
    5.3166   -0.8204    1.7853 H   0  0  0  0  0  0  0  0  0  0  0  0
    6.4048    0.3909    1.0170 H   0  0  0  0  0  0  0  0  0  0  0  0
    5.9192   -2.2970   -0.2480 H   0  0  0  0  0  0  0  0  0  0  0  0
    5.5760   -1.6192   -1.8832 H   0  0  0  0  0  0  0  0  0  0  0  0
    6.8871   -0.9188   -0.8903 H   0  0  0  0  0  0  0  0  0  0  0  0
  1  2  1  0
  2  3  1  0
  3  4  1  0
  4  5  2  0
  5  6  1  0
  6  7  2  0
  7  8  1  0
  7  9  1  0
  9 10  1  0
  9 11  2  0
 11 12  1  0
  2 13  2  0
 13 14  1  0
 14 15  2  0
 15 16  1  0
 16 17  1  0
 16 18  1  0
 18 19  2  0
 19 20  1  0
 20 21  2  3
 21 22  1  0
 22 23  1  0
 23 24  1  0
 24 25  1  0
 24 26  1  0
 20  1  1  0
 11  4  1  0
 18 13  1  0
  1 27  1  0
  3 28  1  0
  5 29  1  0
  6 30  1  0
 14 31  1  0
 17 32  1  0
 17 33  1  0
 17 34  1  0
 22 35  1  0
 22 36  1  0
 23 37  1  0
 23 38  1  0
 24 39  1  0
 25 40  1  0
 25 41  1  0
 25 42  1  0
 26 43  1  0
 26 44  1  0
 26 45  1  0
M  CHG  1  24   1
M  END
>  <ScrubInfo>  (2) 
{"isomerGroup": 0, "isomerId": 1, "confId": 0, "nr_conformers:": 1, "nr_isomers:": 9}

$$$$
_i2
     RDKit          3D

 45 47  0  0  0  0  0  0  0  0999 V2000
   -0.9340   -0.1277    0.3366 N   0  0  0  0  0  0  0  0  0  0  0  0
    0.2868    0.4541    0.6051 C   0  0  0  0  0  0  0  0  0  0  0  0
    0.9797   -0.1814    1.6073 N   0  0  0  0  0  0  0  0  0  0  0  0
    2.1555    0.4378    2.2201 C   0  0  0  0  0  0  0  0  0  0  0  0
    3.4372   -0.3922    2.0085 C   0  0  0  0  0  0  0  0  0  0  0  0
    3.9671   -0.4611    0.5860 N   0  0  0  0  0  4  0  0  0  0  0  0
    3.1321   -1.2800   -0.3578 C   0  0  0  0  0  0  0  0  0  0  0  0
    4.3248    0.8740   -0.0008 C   0  0  0  0  0  0  0  0  0  0  0  0
    0.7832    1.4662   -0.0619 N   0  0  0  0  0  0  0  0  0  0  0  0
   -0.0894    1.9149   -1.0086 C   0  0  0  0  0  0  0  0  0  0  0  0
   -1.3377    1.4106   -1.3201 C   0  0  0  0  0  0  0  0  0  0  0  0
   -1.8162    2.2183   -2.3614 C   0  0  0  0  0  0  0  0  0  0  0  0
   -0.9415    3.1739   -2.6977 N   0  0  0  0  0  0  0  0  0  0  0  0
    0.0872    2.9880   -1.8400 N   0  0  0  0  0  0  0  0  0  0  0  0
    1.2056    3.8954   -1.8848 C   0  0  0  0  0  0  0  0  0  0  0  0
   -1.8624    0.2754   -0.6003 C   0  0  0  0  0  0  0  0  0  0  0  0
   -3.0286   -0.1513   -0.9378 N   0  0  0  0  0  0  0  0  0  0  0  0
   -3.6785   -1.2608   -0.3707 C   0  0  0  0  0  0  0  0  0  0  0  0
   -4.5254   -1.9832   -1.2269 C   0  0  0  0  0  0  0  0  0  0  0  0
   -5.2563   -3.0856   -0.7710 C   0  0  0  0  0  0  0  0  0  0  0  0
   -5.1494   -3.4726    0.5583 C   0  0  0  0  0  0  0  0  0  0  0  0
   -5.8371   -4.5359    0.9929 F   0  0  0  0  0  0  0  0  0  0  0  0
   -4.3300   -2.7684    1.4266 C   0  0  0  0  0  0  0  0  0  0  0  0
   -4.2114   -3.1529    2.7056 F   0  0  0  0  0  0  0  0  0  0  0  0
   -3.6097   -1.6689    0.9692 C   0  0  0  0  0  0  0  0  0  0  0  0
   -2.8137   -1.0225    1.8376 F   0  0  0  0  0  0  0  0  0  0  0  0
   -1.2531   -0.8503    0.9601 H   0  0  0  0  0  0  0  0  0  0  0  0
    0.3778   -0.6214    2.3000 H   0  0  0  0  0  0  0  0  0  0  0  0
    2.3069    1.4708    1.8899 H   0  0  0  0  0  0  0  0  0  0  0  0
    1.9702    0.4976    3.2996 H   0  0  0  0  0  0  0  0  0  0  0  0
    4.2508    0.0321    2.6079 H   0  0  0  0  0  0  0  0  0  0  0  0
    3.2899   -1.4282    2.3347 H   0  0  0  0  0  0  0  0  0  0  0  0
    4.8540   -0.9743    0.6631 H   0  0  0  0  0  0  0  0  0  0  0  0
    2.2956   -0.6862   -0.7217 H   0  0  0  0  0  0  0  0  0  0  0  0
    3.7731   -1.5621   -1.1982 H   0  0  0  0  0  0  0  0  0  0  0  0
    2.7950   -2.1793    0.1633 H   0  0  0  0  0  0  0  0  0  0  0  0
    4.8640    0.6955   -0.9352 H   0  0  0  0  0  0  0  0  0  0  0  0
    3.4155    1.4451   -0.1882 H   0  0  0  0  0  0  0  0  0  0  0  0
    4.9747    1.3931    0.7084 H   0  0  0  0  0  0  0  0  0  0  0  0
   -2.7592    2.1526   -2.8897 H   0  0  0  0  0  0  0  0  0  0  0  0
    1.6847    3.8017   -2.8626 H   0  0  0  0  0  0  0  0  0  0  0  0
    1.9196    3.6475   -1.0964 H   0  0  0  0  0  0  0  0  0  0  0  0
    0.8320    4.9120   -1.7374 H   0  0  0  0  0  0  0  0  0  0  0  0
   -4.6217   -1.6740   -2.2673 H   0  0  0  0  0  0  0  0  0  0  0  0
   -5.9077   -3.6362   -1.4441 H   0  0  0  0  0  0  0  0  0  0  0  0
  1  2  1  0
  2  3  1  0
  3  4  1  0
  4  5  1  0
  5  6  1  0
  6  7  1  0
  6  8  1  0
  2  9  2  0
  9 10  1  0
 10 11  2  0
 11 12  1  0
 12 13  2  0
 13 14  1  0
 14 15  1  0
 11 16  1  0
 16 17  2  3
 17 18  1  0
 18 19  2  0
 19 20  1  0
 20 21  2  0
 21 22  1  0
 21 23  1  0
 23 24  1  0
 23 25  2  0
 25 26  1  0
 16  1  1  0
 25 18  1  0
 14 10  1  0
  1 27  1  0
  3 28  1  0
  4 29  1  0
  4 30  1  0
  5 31  1  0
  5 32  1  0
  6 33  1  0
  7 34  1  0
  7 35  1  0
  7 36  1  0
  8 37  1  0
  8 38  1  0
  8 39  1  0
 12 40  1  0
 15 41  1  0
 15 42  1  0
 15 43  1  0
 19 44  1  0
 20 45  1  0
M  CHG  1   6   1
M  END
>  <ScrubInfo>  (3) 
{"isomerGroup": 0, "isomerId": 2, "confId": 0, "nr_conformers:": 1, "nr_isomers:": 9}

$$$$
_i3
     RDKit          3D

 45 47  0  0  0  0  0  0  0  0999 V2000
    0.3744   -1.5151    1.0916 N   0  0  0  0  0  0  0  0  0  0  0  0
    0.1755   -0.3729    0.3378 C   0  0  0  0  0  0  0  0  0  0  0  0
    1.0854    0.3914   -0.1515 N   0  0  0  0  0  0  0  0  0  0  0  0
    2.4941    0.1167    0.0497 C   0  0  0  0  0  0  0  0  0  0  0  0
    3.2744    1.2346   -0.6638 C   0  0  0  0  0  0  0  0  0  0  0  0
    4.7666    1.1673   -0.3926 N   0  0  0  0  0  4  0  0  0  0  0  0
    5.4343   -0.0188   -1.0291 C   0  0  0  0  0  0  0  0  0  0  0  0
    5.4396    2.4510   -0.8089 C   0  0  0  0  0  0  0  0  0  0  0  0
   -1.0949    0.0725    0.0270 N   0  0  0  0  0  0  0  0  0  0  0  0
   -2.1495   -0.5717    0.4353 C   0  0  0  0  0  0  0  0  0  0  0  0
   -3.4652   -0.2583    0.2106 N   0  0  0  0  0  0  0  0  0  0  0  0
   -4.0210    0.8212   -0.5093 C   0  0  0  0  0  0  0  0  0  0  0  0
   -3.2755    1.8128   -1.1589 C   0  0  0  0  0  0  0  0  0  0  0  0
   -3.9115    2.8516   -1.8524 C   0  0  0  0  0  0  0  0  0  0  0  0
   -5.3001    2.9068   -1.9014 C   0  0  0  0  0  0  0  0  0  0  0  0
   -5.8936    3.9055   -2.5677 F   0  0  0  0  0  0  0  0  0  0  0  0
   -6.0605    1.9388   -1.2675 C   0  0  0  0  0  0  0  0  0  0  0  0
   -7.3989    1.9904   -1.3137 F   0  0  0  0  0  0  0  0  0  0  0  0
   -5.4247    0.9113   -0.5817 C   0  0  0  0  0  0  0  0  0  0  0  0
   -6.1608   -0.0295    0.0344 F   0  0  0  0  0  0  0  0  0  0  0  0
   -1.9812   -1.7746    1.2283 C   0  0  0  0  0  0  0  0  0  0  0  0
   -2.8008   -2.7337    1.8467 C   0  0  0  0  0  0  0  0  0  0  0  0
   -2.0902   -3.6786    2.4781 N   0  0  0  0  0  0  0  0  0  0  0  0
   -0.8035   -3.3233    2.2632 N   0  0  0  0  0  0  0  0  0  0  0  0
    0.2446   -4.1426    2.8169 C   0  0  0  0  0  0  0  0  0  0  0  0
   -0.7085   -2.1889    1.5190 C   0  0  0  0  0  0  0  0  0  0  0  0
    1.3173   -1.8046    1.2943 H   0  0  0  0  0  0  0  0  0  0  0  0
    2.7410    0.1182    1.1175 H   0  0  0  0  0  0  0  0  0  0  0  0
    2.7571   -0.8577   -0.3750 H   0  0  0  0  0  0  0  0  0  0  0  0
    2.9308    2.2099   -0.2987 H   0  0  0  0  0  0  0  0  0  0  0  0
    3.1295    1.1999   -1.7499 H   0  0  0  0  0  0  0  0  0  0  0  0
    4.8922    1.0960    0.6253 H   0  0  0  0  0  0  0  0  0  0  0  0
    5.2664    0.0211   -2.1085 H   0  0  0  0  0  0  0  0  0  0  0  0
    6.5022    0.0279   -0.7986 H   0  0  0  0  0  0  0  0  0  0  0  0
    5.0113   -0.9278   -0.5966 H   0  0  0  0  0  0  0  0  0  0  0  0
    4.9769    3.2729   -0.2561 H   0  0  0  0  0  0  0  0  0  0  0  0
    5.3106    2.5788   -1.8871 H   0  0  0  0  0  0  0  0  0  0  0  0
    6.4982    2.3798   -0.5453 H   0  0  0  0  0  0  0  0  0  0  0  0
   -4.1825   -0.8618    0.6007 H   0  0  0  0  0  0  0  0  0  0  0  0
   -2.1894    1.8056   -1.1448 H   0  0  0  0  0  0  0  0  0  0  0  0
   -3.3276    3.6179   -2.3545 H   0  0  0  0  0  0  0  0  0  0  0  0
   -3.8808   -2.8019    1.8758 H   0  0  0  0  0  0  0  0  0  0  0  0
    0.1282   -4.1634    3.9035 H   0  0  0  0  0  0  0  0  0  0  0  0
    1.2195   -3.7251    2.5572 H   0  0  0  0  0  0  0  0  0  0  0  0
    0.1506   -5.1494    2.4022 H   0  0  0  0  0  0  0  0  0  0  0  0
  1  2  1  0
  2  3  2  3
  3  4  1  0
  4  5  1  0
  5  6  1  0
  6  7  1  0
  6  8  1  0
  2  9  1  0
  9 10  2  0
 10 11  1  0
 11 12  1  0
 12 13  2  0
 13 14  1  0
 14 15  2  0
 15 16  1  0
 15 17  1  0
 17 18  1  0
 17 19  2  0
 19 20  1  0
 10 21  1  0
 21 22  1  0
 22 23  2  0
 23 24  1  0
 24 25  1  0
 24 26  1  0
 26  1  1  0
 19 12  1  0
 26 21  2  0
  1 27  1  0
  4 28  1  0
  4 29  1  0
  5 30  1  0
  5 31  1  0
  6 32  1  0
  7 33  1  0
  7 34  1  0
  7 35  1  0
  8 36  1  0
  8 37  1  0
  8 38  1  0
 11 39  1  0
 13 40  1  0
 14 41  1  0
 22 42  1  0
 25 43  1  0
 25 44  1  0
 25 45  1  0
M  CHG  1   6   1
M  END
>  <ScrubInfo>  (4) 
{"isomerGroup": 0, "isomerId": 3, "confId": 0, "nr_conformers:": 1, "nr_isomers:": 9}

$$$$
_i4
     RDKit          3D

 45 47  0  0  0  0  0  0  0  0999 V2000
   -0.1135   -1.5700   -1.5193 N   0  0  0  0  0  0  0  0  0  0  0  0
   -0.5974   -0.2937   -1.6163 C   0  0  0  0  0  0  0  0  0  0  0  0
   -1.8566   -0.2101   -2.1413 N   0  0  0  0  0  0  0  0  0  0  0  0
   -2.9758   -0.2915   -1.1873 C   0  0  0  0  0  0  0  0  0  0  0  0
   -2.8656    0.7682   -0.0607 C   0  0  0  0  0  0  0  0  0  0  0  0
   -4.0529    0.8029    0.8857 N   0  0  0  0  0  4  0  0  0  0  0  0
   -5.3360    1.2537    0.2517 C   0  0  0  0  0  0  0  0  0  0  0  0
   -4.2145   -0.4474    1.7025 C   0  0  0  0  0  0  0  0  0  0  0  0
   -0.0102    0.7897   -1.2038 N   0  0  0  0  0  0  0  0  0  0  0  0
    1.2226    0.6900   -0.5662 C   0  0  0  0  0  0  0  0  0  0  0  0
    1.6382    1.7737    0.0051 N   0  0  0  0  0  0  0  0  0  0  0  0
    2.7826    1.8040    0.8082 C   0  0  0  0  0  0  0  0  0  0  0  0
    3.9621    2.3734    0.3142 C   0  0  0  0  0  0  0  0  0  0  0  0
    5.0973    2.4595    1.1255 C   0  0  0  0  0  0  0  0  0  0  0  0
    5.0449    1.9913    2.4362 C   0  0  0  0  0  0  0  0  0  0  0  0
    6.1368    2.0799    3.2067 F   0  0  0  0  0  0  0  0  0  0  0  0
    3.8752    1.4434    2.9448 C   0  0  0  0  0  0  0  0  0  0  0  0
    3.8300    1.0007    4.2093 F   0  0  0  0  0  0  0  0  0  0  0  0
    2.7489    1.3562    2.1378 C   0  0  0  0  0  0  0  0  0  0  0  0
    1.6163    0.8283    2.6324 F   0  0  0  0  0  0  0  0  0  0  0  0
    1.8547   -0.6165   -0.5792 C   0  0  0  0  0  0  0  0  0  0  0  0
    3.1023   -1.1702   -0.2460 C   0  0  0  0  0  0  0  0  0  0  0  0
    3.1611   -2.4892   -0.4798 N   0  0  0  0  0  0  0  0  0  0  0  0
    1.9468   -2.7873   -0.9908 N   0  0  0  0  0  0  0  0  0  0  0  0
    1.6684   -4.1450   -1.3865 C   0  0  0  0  0  0  0  0  0  0  0  0
    1.1443   -1.6921   -1.0558 C   0  0  0  0  0  0  0  0  0  0  0  0
   -0.5698   -2.2751   -2.0877 H   0  0  0  0  0  0  0  0  0  0  0  0
   -1.9145    0.6951   -2.6138 H   0  0  0  0  0  0  0  0  0  0  0  0
   -3.0057   -1.2998   -0.7601 H   0  0  0  0  0  0  0  0  0  0  0  0
   -3.9025   -0.1508   -1.7523 H   0  0  0  0  0  0  0  0  0  0  0  0
   -2.7739    1.7763   -0.4812 H   0  0  0  0  0  0  0  0  0  0  0  0
   -1.9900    0.5872    0.5719 H   0  0  0  0  0  0  0  0  0  0  0  0
   -3.8092    1.5388    1.5651 H   0  0  0  0  0  0  0  0  0  0  0  0
   -6.0596    1.4352    1.0510 H   0  0  0  0  0  0  0  0  0  0  0  0
   -5.6940    0.4698   -0.4197 H   0  0  0  0  0  0  0  0  0  0  0  0
   -5.1412    2.1814   -0.2923 H   0  0  0  0  0  0  0  0  0  0  0  0
   -4.9615   -0.2490    2.4757 H   0  0  0  0  0  0  0  0  0  0  0  0
   -4.5444   -1.2568    1.0469 H   0  0  0  0  0  0  0  0  0  0  0  0
   -3.2521   -0.6809    2.1650 H   0  0  0  0  0  0  0  0  0  0  0  0
    3.9933    2.7574   -0.7034 H   0  0  0  0  0  0  0  0  0  0  0  0
    6.0178    2.8964    0.7476 H   0  0  0  0  0  0  0  0  0  0  0  0
    3.9880   -0.6903    0.1474 H   0  0  0  0  0  0  0  0  0  0  0  0
    2.2857   -4.3812   -2.2566 H   0  0  0  0  0  0  0  0  0  0  0  0
    1.9129   -4.8072   -0.5519 H   0  0  0  0  0  0  0  0  0  0  0  0
    0.6108   -4.2482   -1.6385 H   0  0  0  0  0  0  0  0  0  0  0  0
  1  2  1  0
  2  3  1  0
  3  4  1  0
  4  5  1  0
  5  6  1  0
  6  7  1  0
  6  8  1  0
  2  9  2  0
  9 10  1  0
 10 11  2  3
 11 12  1  0
 12 13  2  0
 13 14  1  0
 14 15  2  0
 15 16  1  0
 15 17  1  0
 17 18  1  0
 17 19  2  0
 19 20  1  0
 10 21  1  0
 21 22  1  0
 22 23  2  0
 23 24  1  0
 24 25  1  0
 24 26  1  0
 26  1  1  0
 19 12  1  0
 26 21  2  0
  1 27  1  0
  3 28  1  0
  4 29  1  0
  4 30  1  0
  5 31  1  0
  5 32  1  0
  6 33  1  0
  7 34  1  0
  7 35  1  0
  7 36  1  0
  8 37  1  0
  8 38  1  0
  8 39  1  0
 13 40  1  0
 14 41  1  0
 22 42  1  0
 25 43  1  0
 25 44  1  0
 25 45  1  0
M  CHG  1   6   1
M  END
>  <ScrubInfo>  (5) 
{"isomerGroup": 0, "isomerId": 4, "confId": 0, "nr_conformers:": 1, "nr_isomers:": 9}

$$$$
_i5
     RDKit          3D

 45 47  0  0  0  0  0  0  0  0999 V2000
   -3.3141    2.5218    0.7272 N   0  0  0  0  0  0  0  0  0  0  0  0
   -2.8682    1.2087    0.8077 C   0  0  0  0  0  0  0  0  0  0  0  0
   -1.5633    1.0744    0.5252 C   0  0  0  0  0  0  0  0  0  0  0  0
   -0.5532    0.0304    0.4202 C   0  0  0  0  0  0  0  0  0  0  0  0
   -0.5951   -1.2390    0.6518 N   0  0  0  0  0  0  0  0  0  0  0  0
   -1.7940   -1.8524    1.0376 C   0  0  0  0  0  0  0  0  0  0  0  0
   -2.0575   -2.0733    2.3951 C   0  0  0  0  0  0  0  0  0  0  0  0
   -3.2302   -2.7241    2.7890 C   0  0  0  0  0  0  0  0  0  0  0  0
   -4.1308   -3.1661    1.8229 C   0  0  0  0  0  0  0  0  0  0  0  0
   -5.2526   -3.7860    2.2107 F   0  0  0  0  0  0  0  0  0  0  0  0
   -3.8728   -2.9691    0.4732 C   0  0  0  0  0  0  0  0  0  0  0  0
   -4.7448   -3.3977   -0.4498 F   0  0  0  0  0  0  0  0  0  0  0  0
   -2.7084   -2.3213    0.0828 C   0  0  0  0  0  0  0  0  0  0  0  0
   -2.4611   -2.1292   -1.2228 F   0  0  0  0  0  0  0  0  0  0  0  0
    0.6699    0.4767   -0.0058 N   0  0  0  0  0  0  0  0  0  0  0  0
    0.9290    1.7275   -0.2340 C   0  0  0  0  0  0  0  0  0  0  0  0
    2.1727    2.0814   -0.6752 N   0  0  0  0  0  0  0  0  0  0  0  0
    3.3062    1.1800   -0.6019 C   0  0  0  0  0  0  0  0  0  0  0  0
    3.2273    0.0917   -1.6995 C   0  0  0  0  0  0  0  0  0  0  0  0
    3.6288   -1.3017   -1.2413 N   0  0  0  0  0  4  0  0  0  0  0  0
    5.0176   -1.3993   -0.6931 C   0  0  0  0  0  0  0  0  0  0  0  0
    2.5982   -1.9428   -0.3442 C   0  0  0  0  0  0  0  0  0  0  0  0
    0.0592    2.7617   -0.0691 N   0  0  0  0  0  0  0  0  0  0  0  0
   -1.1423    2.4745    0.2976 C   0  0  0  0  0  0  0  0  0  0  0  0
   -2.2111    3.3368    0.5342 N   0  0  0  0  0  0  0  0  0  0  0  0
   -2.3689    4.5708   -0.2135 C   0  0  0  0  0  0  0  0  0  0  0  0
   -3.9656    2.7947    1.4682 H   0  0  0  0  0  0  0  0  0  0  0  0
   -3.5844    0.4486    1.0806 H   0  0  0  0  0  0  0  0  0  0  0  0
   -1.3450   -1.7433    3.1478 H   0  0  0  0  0  0  0  0  0  0  0  0
   -3.4443   -2.8972    3.8404 H   0  0  0  0  0  0  0  0  0  0  0  0
    2.3566    3.0714   -0.5381 H   0  0  0  0  0  0  0  0  0  0  0  0
    4.2237    1.7604   -0.7528 H   0  0  0  0  0  0  0  0  0  0  0  0
    3.3700    0.7566    0.4058 H   0  0  0  0  0  0  0  0  0  0  0  0
    2.2284   -0.0052   -2.1389 H   0  0  0  0  0  0  0  0  0  0  0  0
    3.9104    0.3456   -2.5189 H   0  0  0  0  0  0  0  0  0  0  0  0
    3.6147   -1.8725   -2.0964 H   0  0  0  0  0  0  0  0  0  0  0  0
    5.0608   -0.8800    0.2671 H   0  0  0  0  0  0  0  0  0  0  0  0
    5.2576   -2.4586   -0.5684 H   0  0  0  0  0  0  0  0  0  0  0  0
    5.7013   -0.9460   -1.4155 H   0  0  0  0  0  0  0  0  0  0  0  0
    1.6440   -1.9392   -0.8744 H   0  0  0  0  0  0  0  0  0  0  0  0
    2.9102   -2.9761   -0.1685 H   0  0  0  0  0  0  0  0  0  0  0  0
    2.5552   -1.3951    0.5988 H   0  0  0  0  0  0  0  0  0  0  0  0
   -1.4684    5.1878   -0.1319 H   0  0  0  0  0  0  0  0  0  0  0  0
   -2.5568    4.3625   -1.2720 H   0  0  0  0  0  0  0  0  0  0  0  0
   -3.2089    5.1510    0.1821 H   0  0  0  0  0  0  0  0  0  0  0  0
  1  2  1  0
  2  3  2  0
  3  4  1  0
  4  5  2  3
  5  6  1  0
  6  7  2  0
  7  8  1  0
  8  9  2  0
  9 10  1  0
  9 11  1  0
 11 12  1  0
 11 13  2  0
 13 14  1  0
  4 15  1  0
 15 16  2  0
 16 17  1  0
 17 18  1  0
 18 19  1  0
 19 20  1  0
 20 21  1  0
 20 22  1  0
 16 23  1  0
 23 24  2  0
 24 25  1  0
 25 26  1  0
 25  1  1  0
 24  3  1  0
 13  6  1  0
  1 27  1  0
  2 28  1  0
  7 29  1  0
  8 30  1  0
 17 31  1  0
 18 32  1  0
 18 33  1  0
 19 34  1  0
 19 35  1  0
 20 36  1  0
 21 37  1  0
 21 38  1  0
 21 39  1  0
 22 40  1  0
 22 41  1  0
 22 42  1  0
 26 43  1  0
 26 44  1  0
 26 45  1  0
M  CHG  1  20   1
M  END
>  <ScrubInfo>  (6) 
{"isomerGroup": 0, "isomerId": 5, "confId": 0, "nr_conformers:": 1, "nr_isomers:": 9}

$$$$
_i6
     RDKit          3D

 45 47  0  0  0  0  0  0  0  0999 V2000
   -2.5213   -4.6239   -0.4034 N   0  0  0  0  0  0  0  0  0  0  0  0
   -2.7310   -3.3439    0.0943 C   0  0  0  0  0  0  0  0  0  0  0  0
   -1.7040   -2.5169   -0.1501 C   0  0  0  0  0  0  0  0  0  0  0  0
   -1.3143   -1.1270    0.1329 C   0  0  0  0  0  0  0  0  0  0  0  0
   -2.1337   -0.3599    0.9448 N   0  0  0  0  0  0  0  0  0  0  0  0
   -1.8994    0.8952    1.5466 C   0  0  0  0  0  0  0  0  0  0  0  0
   -2.5630    1.1615    2.7650 C   0  0  0  0  0  0  0  0  0  0  0  0
   -2.3444    2.3466    3.4793 C   0  0  0  0  0  0  0  0  0  0  0  0
   -1.4497    3.2849    2.9879 C   0  0  0  0  0  0  0  0  0  0  0  0
   -1.2190    4.4084    3.6778 F   0  0  0  0  0  0  0  0  0  0  0  0
   -0.7925    3.0545    1.7923 C   0  0  0  0  0  0  0  0  0  0  0  0
    0.0883    3.9489    1.3155 F   0  0  0  0  0  0  0  0  0  0  0  0
   -1.0205    1.8815    1.0762 C   0  0  0  0  0  0  0  0  0  0  0  0
   -0.3871    1.7691   -0.0998 F   0  0  0  0  0  0  0  0  0  0  0  0
   -0.1864   -0.7153   -0.3769 N   0  0  0  0  0  0  0  0  0  0  0  0
    0.5327   -1.5682   -1.1908 C   0  0  0  0  0  0  0  0  0  0  0  0
    1.4691   -1.0903   -1.9330 N   0  0  0  0  0  0  0  0  0  0  0  0
    1.6621    0.3533   -1.9831 C   0  0  0  0  0  0  0  0  0  0  0  0
    2.5113    0.8401   -0.8044 C   0  0  0  0  0  0  0  0  0  0  0  0
    2.3607    2.3368   -0.5930 N   0  0  0  0  0  4  0  0  0  0  0  0
    2.8484    3.1626   -1.7451 C   0  0  0  0  0  0  0  0  0  0  0  0
    2.9827    2.7719    0.7013 C   0  0  0  0  0  0  0  0  0  0  0  0
    0.3729   -2.9215   -1.3061 N   0  0  0  0  0  0  0  0  0  0  0  0
   -0.7261   -3.3948   -0.8337 C   0  0  0  0  0  0  0  0  0  0  0  0
   -1.2113   -4.7002   -0.8584 N   0  0  0  0  0  0  0  0  0  0  0  0
   -0.8928   -5.5991   -1.9537 C   0  0  0  0  0  0  0  0  0  0  0  0
   -2.8353   -5.3797    0.2114 H   0  0  0  0  0  0  0  0  0  0  0  0
   -3.6495   -3.1437    0.6261 H   0  0  0  0  0  0  0  0  0  0  0  0
   -2.9451   -0.8362    1.3245 H   0  0  0  0  0  0  0  0  0  0  0  0
   -3.2553    0.4340    3.1884 H   0  0  0  0  0  0  0  0  0  0  0  0
   -2.8592    2.5326    4.4187 H   0  0  0  0  0  0  0  0  0  0  0  0
    2.1853    0.5824   -2.9190 H   0  0  0  0  0  0  0  0  0  0  0  0
    0.7045    0.8828   -2.0520 H   0  0  0  0  0  0  0  0  0  0  0  0
    2.2021    0.3636    0.1318 H   0  0  0  0  0  0  0  0  0  0  0  0
    3.5752    0.6304   -0.9636 H   0  0  0  0  0  0  0  0  0  0  0  0
    1.3451    2.5012   -0.4991 H   0  0  0  0  0  0  0  0  0  0  0  0
    2.2532    2.9183   -2.6276 H   0  0  0  0  0  0  0  0  0  0  0  0
    2.7039    4.2170   -1.4941 H   0  0  0  0  0  0  0  0  0  0  0  0
    3.9067    2.9432   -1.9090 H   0  0  0  0  0  0  0  0  0  0  0  0
    4.0586    2.5841    0.6516 H   0  0  0  0  0  0  0  0  0  0  0  0
    2.5223    2.2008    1.5119 H   0  0  0  0  0  0  0  0  0  0  0  0
    2.7777    3.8370    0.8381 H   0  0  0  0  0  0  0  0  0  0  0  0
   -1.3296   -5.2392   -2.8911 H   0  0  0  0  0  0  0  0  0  0  0  0
    0.1913   -5.6821   -2.0803 H   0  0  0  0  0  0  0  0  0  0  0  0
   -1.2836   -6.6011   -1.7491 H   0  0  0  0  0  0  0  0  0  0  0  0
  1  2  1  0
  2  3  2  0
  3  4  1  0
  4  5  1  0
  5  6  1  0
  6  7  2  0
  7  8  1  0
  8  9  2  0
  9 10  1  0
  9 11  1  0
 11 12  1  0
 11 13  2  0
 13 14  1  0
  4 15  2  0
 15 16  1  0
 16 17  2  3
 17 18  1  0
 18 19  1  0
 19 20  1  0
 20 21  1  0
 20 22  1  0
 16 23  1  0
 23 24  2  0
 24 25  1  0
 25 26  1  0
 25  1  1  0
 24  3  1  0
 13  6  1  0
  1 27  1  0
  2 28  1  0
  5 29  1  0
  7 30  1  0
  8 31  1  0
 18 32  1  0
 18 33  1  0
 19 34  1  0
 19 35  1  0
 20 36  1  0
 21 37  1  0
 21 38  1  0
 21 39  1  0
 22 40  1  0
 22 41  1  0
 22 42  1  0
 26 43  1  0
 26 44  1  0
 26 45  1  0
M  CHG  1  20   1
M  END
>  <ScrubInfo>  (7) 
{"isomerGroup": 0, "isomerId": 6, "confId": 0, "nr_conformers:": 1, "nr_isomers:": 9}

$$$$
_i7
     RDKit          3D

 45 47  0  0  0  0  0  0  0  0999 V2000
   -3.2842    2.8673    0.0796 N   0  0  0  0  0  0  0  0  0  0  0  0
   -3.2771    1.5036    0.3418 C   0  0  0  0  0  0  0  0  0  0  0  0
   -2.0475    0.9694    0.3460 C   0  0  0  0  0  0  0  0  0  0  0  0
   -1.3719   -0.3289    0.5177 C   0  0  0  0  0  0  0  0  0  0  0  0
   -1.8704   -1.5045    0.7625 N   0  0  0  0  0  0  0  0  0  0  0  0
   -3.2563   -1.7000    0.8383 C   0  0  0  0  0  0  0  0  0  0  0  0
   -3.8778   -1.7680    2.0911 C   0  0  0  0  0  0  0  0  0  0  0  0
   -5.2514   -2.0088    2.1854 C   0  0  0  0  0  0  0  0  0  0  0  0
   -5.9989   -2.1953    1.0253 C   0  0  0  0  0  0  0  0  0  0  0  0
   -7.3152   -2.4208    1.1257 F   0  0  0  0  0  0  0  0  0  0  0  0
   -5.3920   -2.1479   -0.2223 C   0  0  0  0  0  0  0  0  0  0  0  0
   -6.1203   -2.3260   -1.3333 F   0  0  0  0  0  0  0  0  0  0  0  0
   -4.0275   -1.9081   -0.3152 C   0  0  0  0  0  0  0  0  0  0  0  0
   -3.4437   -1.8570   -1.5233 F   0  0  0  0  0  0  0  0  0  0  0  0
   -0.0097   -0.2410    0.3857 N   0  0  0  0  0  0  0  0  0  0  0  0
    0.7203    0.8812    0.0948 C   0  0  0  0  0  0  0  0  0  0  0  0
    1.9891    0.9402   -0.1051 N   0  0  0  0  0  0  0  0  0  0  0  0
    2.8117   -0.2540   -0.0525 C   0  0  0  0  0  0  0  0  0  0  0  0
    4.2512    0.1702   -0.3892 C   0  0  0  0  0  0  0  0  0  0  0  0
    5.1780   -1.0195   -0.5666 N   0  0  0  0  0  4  0  0  0  0  0  0
    6.4711   -0.5935   -1.2137 C   0  0  0  0  0  0  0  0  0  0  0  0
    5.4364   -1.7699    0.7092 C   0  0  0  0  0  0  0  0  0  0  0  0
    0.1165    2.1118   -0.0123 N   0  0  0  0  0  0  0  0  0  0  0  0
   -1.1725    2.1741    0.1148 C   0  0  0  0  0  0  0  0  0  0  0  0
   -1.9737    3.3153    0.0625 N   0  0  0  0  0  0  0  0  0  0  0  0
   -1.6245    4.4466   -0.7765 C   0  0  0  0  0  0  0  0  0  0  0  0
   -3.9457    3.4024    0.6482 H   0  0  0  0  0  0  0  0  0  0  0  0
   -4.2260    1.0184    0.5118 H   0  0  0  0  0  0  0  0  0  0  0  0
   -3.2882   -1.6408    2.9961 H   0  0  0  0  0  0  0  0  0  0  0  0
   -5.7416   -2.0610    3.1538 H   0  0  0  0  0  0  0  0  0  0  0  0
    0.4601   -1.1264    0.4627 H   0  0  0  0  0  0  0  0  0  0  0  0
    2.7739   -0.6975    0.9480 H   0  0  0  0  0  0  0  0  0  0  0  0
    2.4666   -0.9943   -0.7836 H   0  0  0  0  0  0  0  0  0  0  0  0
    4.2590    0.7200   -1.3380 H   0  0  0  0  0  0  0  0  0  0  0  0
    4.6766    0.8139    0.3896 H   0  0  0  0  0  0  0  0  0  0  0  0
    4.7261   -1.6648   -1.2278 H   0  0  0  0  0  0  0  0  0  0  0  0
    6.9769    0.1131   -0.5503 H   0  0  0  0  0  0  0  0  0  0  0  0
    7.0804   -1.4868   -1.3744 H   0  0  0  0  0  0  0  0  0  0  0  0
    6.2345   -0.1311   -2.1757 H   0  0  0  0  0  0  0  0  0  0  0  0
    4.4903   -2.1813    1.0669 H   0  0  0  0  0  0  0  0  0  0  0  0
    6.1261   -2.5890    0.4883 H   0  0  0  0  0  0  0  0  0  0  0  0
    5.8699   -1.0814    1.4394 H   0  0  0  0  0  0  0  0  0  0  0  0
   -0.6165    4.8035   -0.5423 H   0  0  0  0  0  0  0  0  0  0  0  0
   -1.6622    4.1710   -1.8355 H   0  0  0  0  0  0  0  0  0  0  0  0
   -2.3197    5.2753   -0.6073 H   0  0  0  0  0  0  0  0  0  0  0  0
  1  2  1  0
  2  3  2  0
  3  4  1  0
  4  5  2  3
  5  6  1  0
  6  7  2  0
  7  8  1  0
  8  9  2  0
  9 10  1  0
  9 11  1  0
 11 12  1  0
 11 13  2  0
 13 14  1  0
  4 15  1  0
 15 16  1  0
 16 17  2  3
 17 18  1  0
 18 19  1  0
 19 20  1  0
 20 21  1  0
 20 22  1  0
 16 23  1  0
 23 24  2  0
 24 25  1  0
 25 26  1  0
 25  1  1  0
 24  3  1  0
 13  6  1  0
  1 27  1  0
  2 28  1  0
  7 29  1  0
  8 30  1  0
 15 31  1  0
 18 32  1  0
 18 33  1  0
 19 34  1  0
 19 35  1  0
 20 36  1  0
 21 37  1  0
 21 38  1  0
 21 39  1  0
 22 40  1  0
 22 41  1  0
 22 42  1  0
 26 43  1  0
 26 44  1  0
 26 45  1  0
M  CHG  1  20   1
M  END
>  <ScrubInfo>  (8) 
{"isomerGroup": 0, "isomerId": 7, "confId": 0, "nr_conformers:": 1, "nr_isomers:": 9}

$$$$
_i8
     RDKit          3D

 45 47  0  0  0  0  0  0  0  0999 V2000
   -0.3341   -1.5870    0.1352 N   0  0  0  0  0  0  0  0  0  0  0  0
   -0.8391   -0.4203   -0.4054 C   0  0  0  0  0  0  0  0  0  0  0  0
   -2.1025   -0.3650   -0.6943 N   0  0  0  0  0  0  0  0  0  0  0  0
   -2.6012    0.8924   -1.2800 C   0  0  0  0  0  0  0  0  0  0  0  0
   -4.1013    0.7161   -1.5710 C   0  0  0  0  0  0  0  0  0  0  0  0
   -4.7318   -0.0562   -0.4259 N   0  0  0  0  0  4  0  0  0  0  0  0
   -5.9159   -0.8639   -0.8503 C   0  0  0  0  0  0  0  0  0  0  0  0
   -5.0144    0.7853    0.7801 C   0  0  0  0  0  0  0  0  0  0  0  0
    0.1157    0.5674   -0.5585 N   0  0  0  0  0  0  0  0  0  0  0  0
    1.4565    0.5961   -0.2231 C   0  0  0  0  0  0  0  0  0  0  0  0
    2.1487    1.6788   -0.4107 N   0  0  0  0  0  0  0  0  0  0  0  0
    3.4818    1.7975    0.0005 C   0  0  0  0  0  0  0  0  0  0  0  0
    4.5114    1.6733   -0.9400 C   0  0  0  0  0  0  0  0  0  0  0  0
    5.8440    1.8446   -0.5536 C   0  0  0  0  0  0  0  0  0  0  0  0
    6.1431    2.1566    0.7703 C   0  0  0  0  0  0  0  0  0  0  0  0
    7.4229    2.3194    1.1301 F   0  0  0  0  0  0  0  0  0  0  0  0
    5.1305    2.3019    1.7087 C   0  0  0  0  0  0  0  0  0  0  0  0
    5.4272    2.6056    2.9800 F   0  0  0  0  0  0  0  0  0  0  0  0
    3.8072    2.1297    1.3247 C   0  0  0  0  0  0  0  0  0  0  0  0
    2.8285    2.2703    2.2335 F   0  0  0  0  0  0  0  0  0  0  0  0
    1.8927   -0.6760    0.3172 C   0  0  0  0  0  0  0  0  0  0  0  0
    3.0975   -1.2551    0.7532 C   0  0  0  0  0  0  0  0  0  0  0  0
    2.9467   -2.5245    1.1532 N   0  0  0  0  0  0  0  0  0  0  0  0
    1.6318   -2.7696    0.9795 N   0  0  0  0  0  0  0  0  0  0  0  0
    1.1160   -4.0734    1.3151 C   0  0  0  0  0  0  0  0  0  0  0  0
    0.9730   -1.6927    0.4668 C   0  0  0  0  0  0  0  0  0  0  0  0
   -0.9878   -2.3541    0.2304 H   0  0  0  0  0  0  0  0  0  0  0  0
   -2.0803    1.1345   -2.2132 H   0  0  0  0  0  0  0  0  0  0  0  0
   -2.4629    1.7187   -0.5732 H   0  0  0  0  0  0  0  0  0  0  0  0
   -4.6306    1.6657   -1.6968 H   0  0  0  0  0  0  0  0  0  0  0  0
   -4.2240    0.1064   -2.4730 H   0  0  0  0  0  0  0  0  0  0  0  0
   -3.9748   -0.7155   -0.1618 H   0  0  0  0  0  0  0  0  0  0  0  0
   -6.6957   -0.1810   -1.1977 H   0  0  0  0  0  0  0  0  0  0  0  0
   -6.2593   -1.4458    0.0091 H   0  0  0  0  0  0  0  0  0  0  0  0
   -5.6018   -1.5400   -1.6499 H   0  0  0  0  0  0  0  0  0  0  0  0
   -5.7769    1.5235    0.5177 H   0  0  0  0  0  0  0  0  0  0  0  0
   -5.3681    0.1271    1.5782 H   0  0  0  0  0  0  0  0  0  0  0  0
   -4.0887    1.2743    1.0916 H   0  0  0  0  0  0  0  0  0  0  0  0
   -0.1756    1.4558   -0.9342 H   0  0  0  0  0  0  0  0  0  0  0  0
    4.2747    1.4484   -1.9774 H   0  0  0  0  0  0  0  0  0  0  0  0
    6.6494    1.7454   -1.2764 H   0  0  0  0  0  0  0  0  0  0  0  0
    4.0917   -0.8330    0.7978 H   0  0  0  0  0  0  0  0  0  0  0  0
    1.5815   -4.4081    2.2459 H   0  0  0  0  0  0  0  0  0  0  0  0
    0.0339   -4.0171    1.4512 H   0  0  0  0  0  0  0  0  0  0  0  0
    1.3607   -4.7566    0.4983 H   0  0  0  0  0  0  0  0  0  0  0  0
  1  2  1  0
  2  3  2  3
  3  4  1  0
  4  5  1  0
  5  6  1  0
  6  7  1  0
  6  8  1  0
  2  9  1  0
  9 10  1  0
 10 11  2  3
 11 12  1  0
 12 13  2  0
 13 14  1  0
 14 15  2  0
 15 16  1  0
 15 17  1  0
 17 18  1  0
 17 19  2  0
 19 20  1  0
 10 21  1  0
 21 22  1  0
 22 23  2  0
 23 24  1  0
 24 25  1  0
 24 26  1  0
 26  1  1  0
 19 12  1  0
 26 21  2  0
  1 27  1  0
  4 28  1  0
  4 29  1  0
  5 30  1  0
  5 31  1  0
  6 32  1  0
  7 33  1  0
  7 34  1  0
  7 35  1  0
  8 36  1  0
  8 37  1  0
  8 38  1  0
  9 39  1  0
 13 40  1  0
 14 41  1  0
 22 42  1  0
 25 43  1  0
 25 44  1  0
 25 45  1  0
M  CHG  1   6   1
M  END
>  <ScrubInfo>  (9) 
{"isomerGroup": 0, "isomerId": 8, "confId": 0, "nr_conformers:": 1, "nr_isomers:": 9}

$$$$
