REMARK SMILES OCC[N@H+]1CCC[C@H](CNc2cc(-c3ccccc3)nc3ccnn23)C1
REMARK SMILES IDX 4 1 5 2 26 3 6 4 7 5 8 6 3 8 2 9 1 10 9 12 10 13 11 15 12 16
REMARK SMILES IDX 25 17 13 18 24 19 21 20 20 21 23 22 22 23 14 24 15 25 19 26
REMARK SMILES IDX 16 27 18 28 17 29
REMARK H PARENT 4 7 1 11 10 14
ROOT
ATOM      1  N   UNL     1      -4.329   1.066   0.741  1.00  0.00    -0.333 N 
ATOM      2  C   UNL     1      -3.824   2.306   1.451  1.00  0.00     0.262 C 
ATOM      3  C   UNL     1      -3.273   0.482  -0.173  1.00  0.00     0.267 C 
ATOM      4  C   UNL     1      -2.557   1.999   2.234  1.00  0.00     0.062 C 
ATOM      5  C   UNL     1      -1.478   1.381   1.349  1.00  0.00     0.017 C 
ATOM      6  C   UNL     1      -1.996   0.145   0.597  1.00  0.00     0.064 C 
ATOM      7  H   UNL     1      -5.088   1.404   0.132  1.00  0.00     0.348 HD
ENDROOT
BRANCH   1   8
ATOM      8  C   UNL     1      -4.993   0.083   1.694  1.00  0.00     0.290 C 
BRANCH   8   9
ATOM      9  C   UNL     1      -5.811  -0.988   0.963  1.00  0.00     0.217 C 
BRANCH   9  10
ATOM     10  O   UNL     1      -6.603  -1.683   1.913  1.00  0.00    -0.391 OA
ATOM     11  H   UNL     1      -7.102  -2.383   1.449  1.00  0.00     0.210 HD
ENDBRANCH   9  10
ENDBRANCH   8   9
ENDBRANCH   1   8
BRANCH   6  12
ATOM     12  C   UNL     1      -0.938  -0.407  -0.377  1.00  0.00     0.123 C 
BRANCH  12  13
ATOM     13  N   UNL     1       0.196  -0.915   0.369  1.00  0.00    -0.369 N 
ATOM     14  H   UNL     1      -0.050  -1.524   1.163  1.00  0.00     0.162 HD
BRANCH  13  15
ATOM     15  C   UNL     1       1.367  -1.427  -0.209  1.00  0.00     0.132 A 
ATOM     16  C   UNL     1       1.953  -0.977  -1.333  1.00  0.00     0.075 A 
ATOM     17  N   UNL     1       1.975  -2.518   0.463  1.00  0.00    -0.199 N 
ATOM     18  C   UNL     1       3.211  -1.674  -1.773  1.00  0.00     0.076 A 
ATOM     19  N   UNL     1       1.517  -3.133   1.597  1.00  0.00    -0.173 NA
ATOM     20  C   UNL     1       3.130  -3.123  -0.025  1.00  0.00     0.157 A 
ATOM     21  N   UNL     1       3.748  -2.694  -1.163  1.00  0.00    -0.228 NA
ATOM     22  C   UNL     1       2.416  -4.094   1.824  1.00  0.00     0.138 A 
ATOM     23  C   UNL     1       3.430  -4.137   0.854  1.00  0.00     0.071 A 
BRANCH  18  24
ATOM     24  C   UNL     1       3.852  -1.157  -3.015  1.00  0.00     0.000 A 
ATOM     25  C   UNL     1       4.428  -2.075  -3.902  1.00  0.00     0.010 A 
ATOM     26  C   UNL     1       3.917   0.213  -3.295  1.00  0.00     0.010 A 
ATOM     27  C   UNL     1       5.038  -1.627  -5.075  1.00  0.00     0.001 A 
ATOM     28  C   UNL     1       4.531   0.657  -4.469  1.00  0.00     0.001 A 
ATOM     29  C   UNL     1       5.085  -0.263  -5.359  1.00  0.00     0.000 A 
ENDBRANCH  18  24
ENDBRANCH  13  15
ENDBRANCH  12  13
ENDBRANCH   6  12
TORSDOF 7
