_i0
     RDKit          3D

 52 55  0  0  0  0  0  0  0  0999 V2000
   -4.9930    0.0831    1.6944 C   0  0  0  0  0  0  0  0  0  0  0  0
   -4.3294    1.0664    0.7407 N   0  0  0  0  0  4  0  0  0  0  0  0
   -3.8235    2.3060    1.4507 C   0  0  0  0  0  0  0  0  0  0  0  0
   -3.2731    0.4820   -0.1733 C   0  0  0  0  0  0  0  0  0  0  0  0
   -5.8112   -0.9882    0.9628 C   0  0  0  0  0  0  0  0  0  0  0  0
   -6.6031   -1.6833    1.9126 O   0  0  0  0  0  0  0  0  0  0  0  0
   -2.5568    1.9991    2.2342 C   0  0  0  0  0  0  0  0  0  0  0  0
   -1.4780    1.3815    1.3492 C   0  0  0  0  0  0  0  0  0  0  0  0
   -1.9958    0.1446    0.5967 C   0  0  0  0  0  0  0  0  0  0  0  0
   -0.9377   -0.4067   -0.3765 C   0  0  0  0  0  0  0  0  0  0  0  0
    0.1963   -0.9151    0.3691 N   0  0  0  0  0  0  0  0  0  0  0  0
    1.3673   -1.4265   -0.2090 C   0  0  0  0  0  0  0  0  0  0  0  0
    1.9533   -0.9769   -1.3333 C   0  0  0  0  0  0  0  0  0  0  0  0
    1.9752   -2.5182    0.4627 N   0  0  0  0  0  0  0  0  0  0  0  0
    3.2108   -1.6741   -1.7727 C   0  0  0  0  0  0  0  0  0  0  0  0
    1.5171   -3.1330    1.5967 N   0  0  0  0  0  0  0  0  0  0  0  0
    3.1304   -3.1228   -0.0255 C   0  0  0  0  0  0  0  0  0  0  0  0
    3.8519   -1.1575   -3.0147 C   0  0  0  0  0  0  0  0  0  0  0  0
    3.7475   -2.6938   -1.1632 N   0  0  0  0  0  0  0  0  0  0  0  0
    2.4160   -4.0940    1.8237 C   0  0  0  0  0  0  0  0  0  0  0  0
    3.4299   -4.1366    0.8541 C   0  0  0  0  0  0  0  0  0  0  0  0
    4.4280   -2.0748   -3.9024 C   0  0  0  0  0  0  0  0  0  0  0  0
    3.9173    0.2132   -3.2949 C   0  0  0  0  0  0  0  0  0  0  0  0
    5.0382   -1.6271   -5.0750 C   0  0  0  0  0  0  0  0  0  0  0  0
    4.5307    0.6566   -4.4691 C   0  0  0  0  0  0  0  0  0  0  0  0
    5.0852   -0.2630   -5.3593 C   0  0  0  0  0  0  0  0  0  0  0  0
   -5.6581    0.6668    2.3418 H   0  0  0  0  0  0  0  0  0  0  0  0
   -4.2269   -0.3710    2.3301 H   0  0  0  0  0  0  0  0  0  0  0  0
   -5.0880    1.4041    0.1324 H   0  0  0  0  0  0  0  0  0  0  0  0
   -3.6354    3.0548    0.6728 H   0  0  0  0  0  0  0  0  0  0  0  0
   -4.6261    2.6766    2.0965 H   0  0  0  0  0  0  0  0  0  0  0  0
   -3.7035   -0.3946   -0.6659 H   0  0  0  0  0  0  0  0  0  0  0  0
   -3.0846    1.2386   -0.9447 H   0  0  0  0  0  0  0  0  0  0  0  0
   -6.4783   -0.5339    0.2237 H   0  0  0  0  0  0  0  0  0  0  0  0
   -5.1589   -1.7098    0.4629 H   0  0  0  0  0  0  0  0  0  0  0  0
   -7.1021   -2.3827    1.4492 H   0  0  0  0  0  0  0  0  0  0  0  0
   -2.7804    1.3224    3.0672 H   0  0  0  0  0  0  0  0  0  0  0  0
   -2.1739    2.9243    2.6801 H   0  0  0  0  0  0  0  0  0  0  0  0
   -0.6156    1.1174    1.9721 H   0  0  0  0  0  0  0  0  0  0  0  0
   -1.1302    2.1345    0.6302 H   0  0  0  0  0  0  0  0  0  0  0  0
   -2.2209   -0.6369    1.3341 H   0  0  0  0  0  0  0  0  0  0  0  0
   -1.3681   -1.2219   -0.9705 H   0  0  0  0  0  0  0  0  0  0  0  0
   -0.6224    0.3816   -1.0700 H   0  0  0  0  0  0  0  0  0  0  0  0
   -0.0501   -1.5244    1.1630 H   0  0  0  0  0  0  0  0  0  0  0  0
    1.5570   -0.1610   -1.9173 H   0  0  0  0  0  0  0  0  0  0  0  0
    2.2940   -4.7329    2.6896 H   0  0  0  0  0  0  0  0  0  0  0  0
    4.2710   -4.8112    0.7907 H   0  0  0  0  0  0  0  0  0  0  0  0
    4.4064   -3.1406   -3.6838 H   0  0  0  0  0  0  0  0  0  0  0  0
    3.5286    0.9507   -2.5991 H   0  0  0  0  0  0  0  0  0  0  0  0
    5.4852   -2.3423   -5.7616 H   0  0  0  0  0  0  0  0  0  0  0  0
    4.5920    1.7206   -4.6851 H   0  0  0  0  0  0  0  0  0  0  0  0
    5.5696    0.0842   -6.2693 H   0  0  0  0  0  0  0  0  0  0  0  0
  1  2  1  0
  2  3  1  0
  2  4  1  0
  5  1  1  0
  6  5  1  0
  3  7  1  0
  7  8  1  0
  8  9  1  0
  9 10  1  0
  9  4  1  0
 10 11  1  0
 11 12  1  0
 12 13  2  0
 14 12  1  0
 13 15  1  0
 16 14  1  0
 14 17  1  0
 15 18  1  0
 15 19  2  0
 20 16  2  0
 19 17  1  0
 17 21  2  0
 18 22  2  0
 23 18  1  0
 21 20  1  0
 22 24  1  0
 25 23  2  0
 24 26  2  0
 26 25  1  0
  1 27  1  0
  1 28  1  0
  2 29  1  0
  3 30  1  0
  3 31  1  0
  4 32  1  0
  4 33  1  0
  5 34  1  0
  5 35  1  0
  6 36  1  0
  7 37  1  0
  7 38  1  0
  8 39  1  0
  8 40  1  0
  9 41  1  0
 10 42  1  0
 10 43  1  0
 11 44  1  0
 13 45  1  0
 20 46  1  0
 21 47  1  0
 22 48  1  0
 23 49  1  0
 24 50  1  0
 25 51  1  0
 26 52  1  0
M  CHG  1   2   1
M  END
>  <ScrubInfo>  (1) 
{"isomerGroup": 0, "isomerId": 0, "confId": 0, "nr_conformers:": 1, "nr_isomers:": 3}

$$$$
_i1
     RDKit          3D

 52 55  0  0  0  0  0  0  0  0999 V2000
   -2.1169    0.3616   -4.3436 N   0  0  0  0  0  0  0  0  0  0  0  0
   -2.4637    1.0633   -3.2058 C   0  0  0  0  0  0  0  0  0  0  0  0
   -3.4377    2.1585   -3.3511 C   0  0  0  0  0  0  0  0  0  0  0  0
   -3.1526    3.2458   -4.1892 C   0  0  0  0  0  0  0  0  0  0  0  0
   -4.0744    4.2839   -4.3396 C   0  0  0  0  0  0  0  0  0  0  0  0
   -5.2889    4.2423   -3.6571 C   0  0  0  0  0  0  0  0  0  0  0  0
   -5.5843    3.1641   -2.8246 C   0  0  0  0  0  0  0  0  0  0  0  0
   -4.6635    2.1252   -2.6720 C   0  0  0  0  0  0  0  0  0  0  0  0
   -1.9352    0.7853   -2.0004 C   0  0  0  0  0  0  0  0  0  0  0  0
   -0.9487   -0.3326   -1.8384 C   0  0  0  0  0  0  0  0  0  0  0  0
   -0.4890   -0.5723   -0.6524 N   0  0  0  0  0  0  0  0  0  0  0  0
    0.3993   -1.6794   -0.3351 C   0  0  0  0  0  0  0  0  0  0  0  0
    1.8671   -1.2650   -0.5038 C   0  0  0  0  0  0  0  0  0  0  0  0
    2.7920   -2.4187   -0.1078 C   0  0  0  0  0  0  0  0  0  0  0  0
    4.2538   -2.0122   -0.2328 C   0  0  0  0  0  0  0  0  0  0  0  0
    4.5635   -0.7828    0.6003 C   0  0  0  0  0  0  0  0  0  0  0  0
    3.6373    0.3630    0.2972 N   0  0  0  0  0  4  0  0  0  0  0  0
    4.0909    1.3321   -0.7892 C   0  0  0  0  0  0  0  0  0  0  0  0
    3.7310    0.9510   -2.2276 C   0  0  0  0  0  0  0  0  0  0  0  0
    2.3458    1.1770   -2.4644 O   0  0  0  0  0  0  0  0  0  0  0  0
    2.1647   -0.0036    0.3100 C   0  0  0  0  0  0  0  0  0  0  0  0
   -0.6548   -0.9780   -3.0679 N   0  0  0  0  0  0  0  0  0  0  0  0
    0.2768   -1.9631   -3.2124 N   0  0  0  0  0  0  0  0  0  0  0  0
    0.1945   -2.3025   -4.5026 C   0  0  0  0  0  0  0  0  0  0  0  0
   -0.7179   -1.5120   -5.2241 C   0  0  0  0  0  0  0  0  0  0  0  0
   -1.2270   -0.6513   -4.2891 C   0  0  0  0  0  0  0  0  0  0  0  0
   -2.6283    0.6012   -5.1926 H   0  0  0  0  0  0  0  0  0  0  0  0
   -2.2073    3.2965   -4.7249 H   0  0  0  0  0  0  0  0  0  0  0  0
   -3.8466    5.1257   -4.9890 H   0  0  0  0  0  0  0  0  0  0  0  0
   -6.0078    5.0497   -3.7759 H   0  0  0  0  0  0  0  0  0  0  0  0
   -6.5349    3.1305   -2.2975 H   0  0  0  0  0  0  0  0  0  0  0  0
   -4.9180    1.2862   -2.0280 H   0  0  0  0  0  0  0  0  0  0  0  0
   -2.1951    1.3338   -1.1026 H   0  0  0  0  0  0  0  0  0  0  0  0
    0.1570   -2.5909   -0.8903 H   0  0  0  0  0  0  0  0  0  0  0  0
    0.2209   -1.9442    0.7152 H   0  0  0  0  0  0  0  0  0  0  0  0
    2.0439   -1.0578   -1.5601 H   0  0  0  0  0  0  0  0  0  0  0  0
    2.6015   -3.2891   -0.7470 H   0  0  0  0  0  0  0  0  0  0  0  0
    2.5868   -2.7308    0.9242 H   0  0  0  0  0  0  0  0  0  0  0  0
    4.8880   -2.8416    0.1015 H   0  0  0  0  0  0  0  0  0  0  0  0
    4.5062   -1.8388   -1.2833 H   0  0  0  0  0  0  0  0  0  0  0  0
    4.4323   -1.0056    1.6659 H   0  0  0  0  0  0  0  0  0  0  0  0
    5.5932   -0.4415    0.4538 H   0  0  0  0  0  0  0  0  0  0  0  0
    3.7177    0.9549    1.1335 H   0  0  0  0  0  0  0  0  0  0  0  0
    5.1749    1.4382   -0.6785 H   0  0  0  0  0  0  0  0  0  0  0  0
    3.6255    2.2908   -0.5318 H   0  0  0  0  0  0  0  0  0  0  0  0
    3.9785   -0.0855   -2.4611 H   0  0  0  0  0  0  0  0  0  0  0  0
    4.2860    1.5957   -2.9170 H   0  0  0  0  0  0  0  0  0  0  0  0
    2.1554    0.8943   -3.3799 H   0  0  0  0  0  0  0  0  0  0  0  0
    1.9158   -0.1685    1.3660 H   0  0  0  0  0  0  0  0  0  0  0  0
    1.6060    0.8759   -0.0246 H   0  0  0  0  0  0  0  0  0  0  0  0
    0.8141   -3.1107   -4.8725 H   0  0  0  0  0  0  0  0  0  0  0  0
   -0.9607   -1.5639   -6.2757 H   0  0  0  0  0  0  0  0  0  0  0  0
  1  2  1  0
  2  3  1  0
  3  4  2  0
  4  5  1  0
  5  6  2  0
  6  7  1  0
  7  8  2  0
  2  9  2  0
  9 10  1  0
 10 11  2  3
 11 12  1  0
 12 13  1  0
 13 14  1  0
 14 15  1  0
 15 16  1  0
 16 17  1  0
 17 18  1  0
 18 19  1  0
 19 20  1  0
 17 21  1  0
 10 22  1  0
 22 23  1  0
 23 24  2  0
 24 25  1  0
 25 26  2  0
 26  1  1  0
  8  3  1  0
 21 13  1  0
 26 22  1  0
  1 27  1  0
  4 28  1  0
  5 29  1  0
  6 30  1  0
  7 31  1  0
  8 32  1  0
  9 33  1  0
 12 34  1  0
 12 35  1  0
 13 36  1  0
 14 37  1  0
 14 38  1  0
 15 39  1  0
 15 40  1  0
 16 41  1  0
 16 42  1  0
 17 43  1  0
 18 44  1  0
 18 45  1  0
 19 46  1  0
 19 47  1  0
 20 48  1  0
 21 49  1  0
 21 50  1  0
 24 51  1  0
 25 52  1  0
M  CHG  1  17   1
M  END
>  <ScrubInfo>  (2) 
{"isomerGroup": 0, "isomerId": 1, "confId": 0, "nr_conformers:": 1, "nr_isomers:": 3}

$$$$
_i2
     RDKit          3D

 52 55  0  0  0  0  0  0  0  0999 V2000
    1.5471   -1.0333   -3.4816 N   0  0  0  0  0  0  0  0  0  0  0  0
    2.6323   -1.1776   -4.3388 C   0  0  0  0  0  0  0  0  0  0  0  0
    3.8266   -0.9785   -3.7492 C   0  0  0  0  0  0  0  0  0  0  0  0
    3.4211   -0.6012   -2.3700 C   0  0  0  0  0  0  0  0  0  0  0  0
    4.2253   -0.3097   -1.3975 N   0  0  0  0  0  0  0  0  0  0  0  0
    3.6027    0.0136   -0.1958 C   0  0  0  0  0  0  0  0  0  0  0  0
    4.4969    0.3377    0.9408 C   0  0  0  0  0  0  0  0  0  0  0  0
    5.5362   -0.5413    1.2778 C   0  0  0  0  0  0  0  0  0  0  0  0
    6.3910   -0.2580    2.3454 C   0  0  0  0  0  0  0  0  0  0  0  0
    6.2219    0.9125    3.0821 C   0  0  0  0  0  0  0  0  0  0  0  0
    5.2040    1.8040    2.7486 C   0  0  0  0  0  0  0  0  0  0  0  0
    4.3475    1.5207    1.6814 C   0  0  0  0  0  0  0  0  0  0  0  0
    2.2678    0.0203    0.0305 C   0  0  0  0  0  0  0  0  0  0  0  0
    1.3581   -0.3244   -1.1167 C   0  0  0  0  0  0  0  0  0  0  0  0
    0.0629   -0.3581   -1.0599 N   0  0  0  0  0  0  0  0  0  0  0  0
   -0.6292   -0.0945    0.1920 C   0  0  0  0  0  0  0  0  0  0  0  0
   -2.1311   -0.3454   -0.0305 C   0  0  0  0  0  0  0  0  0  0  0  0
   -2.4160   -1.8244   -0.3371 C   0  0  0  0  0  0  0  0  0  0  0  0
   -3.9121   -2.0801   -0.4835 C   0  0  0  0  0  0  0  0  0  0  0  0
   -4.6836   -1.6108    0.7388 C   0  0  0  0  0  0  0  0  0  0  0  0
   -4.3880   -0.1574    0.9914 N   0  0  0  0  0  4  0  0  0  0  0  0
   -5.2593    0.4488    2.0829 C   0  0  0  0  0  0  0  0  0  0  0  0
   -6.6243    0.7960    1.4767 C   0  0  0  0  0  0  0  0  0  0  0  0
   -6.3976    1.3025    0.1561 O   0  0  0  0  0  0  0  0  0  0  0  0
   -2.9204    0.1133    1.1953 C   0  0  0  0  0  0  0  0  0  0  0  0
    2.0440   -0.6016   -2.2767 N   0  0  0  0  0  0  0  0  0  0  0  0
    0.7771   -0.4819   -3.8584 H   0  0  0  0  0  0  0  0  0  0  0  0
    2.4481   -1.4189   -5.3774 H   0  0  0  0  0  0  0  0  0  0  0  0
    4.8263   -1.0171   -4.1350 H   0  0  0  0  0  0  0  0  0  0  0  0
    5.6881   -1.4520    0.7015 H   0  0  0  0  0  0  0  0  0  0  0  0
    7.1945   -0.9469    2.5938 H   0  0  0  0  0  0  0  0  0  0  0  0
    6.8940    1.1363    3.9070 H   0  0  0  0  0  0  0  0  0  0  0  0
    5.0871    2.7266    3.3114 H   0  0  0  0  0  0  0  0  0  0  0  0
    3.5785    2.2431    1.4205 H   0  0  0  0  0  0  0  0  0  0  0  0
    1.8450    0.2553    0.9949 H   0  0  0  0  0  0  0  0  0  0  0  0
   -0.4757    0.9496    0.4901 H   0  0  0  0  0  0  0  0  0  0  0  0
   -0.2651   -0.7481    0.9939 H   0  0  0  0  0  0  0  0  0  0  0  0
   -2.4575    0.2498   -0.8953 H   0  0  0  0  0  0  0  0  0  0  0  0
   -1.9116   -2.1292   -1.2613 H   0  0  0  0  0  0  0  0  0  0  0  0
   -2.0172   -2.4564    0.4667 H   0  0  0  0  0  0  0  0  0  0  0  0
   -4.0881   -3.1503   -0.6394 H   0  0  0  0  0  0  0  0  0  0  0  0
   -4.2852   -1.5629   -1.3763 H   0  0  0  0  0  0  0  0  0  0  0  0
   -4.3987   -2.1674    1.6385 H   0  0  0  0  0  0  0  0  0  0  0  0
   -5.7598   -1.7153    0.5728 H   0  0  0  0  0  0  0  0  0  0  0  0
   -4.6920    0.3686    0.1472 H   0  0  0  0  0  0  0  0  0  0  0  0
   -5.3179   -0.2429    2.9284 H   0  0  0  0  0  0  0  0  0  0  0  0
   -4.7661    1.3743    2.3987 H   0  0  0  0  0  0  0  0  0  0  0  0
   -7.2612   -0.0899    1.3999 H   0  0  0  0  0  0  0  0  0  0  0  0
   -7.1346    1.5538    2.0786 H   0  0  0  0  0  0  0  0  0  0  0  0
   -7.2538    1.6493   -0.1678 H   0  0  0  0  0  0  0  0  0  0  0  0
   -2.8048    1.1928    1.3420 H   0  0  0  0  0  0  0  0  0  0  0  0
   -2.6151   -0.4114    2.1081 H   0  0  0  0  0  0  0  0  0  0  0  0
  1  2  1  0
  2  3  2  0
  3  4  1  0
  4  5  2  0
  5  6  1  0
  6  7  1  0
  7  8  2  0
  8  9  1  0
  9 10  2  0
 10 11  1  0
 11 12  2  0
  6 13  2  0
 13 14  1  0
 14 15  2  3
 15 16  1  0
 16 17  1  0
 17 18  1  0
 18 19  1  0
 19 20  1  0
 20 21  1  0
 21 22  1  0
 22 23  1  0
 23 24  1  0
 21 25  1  0
 14 26  1  0
 26  1  1  0
 26  4  1  0
 12  7  1  0
 25 17  1  0
  1 27  1  0
  2 28  1  0
  3 29  1  0
  8 30  1  0
  9 31  1  0
 10 32  1  0
 11 33  1  0
 12 34  1  0
 13 35  1  0
 16 36  1  0
 16 37  1  0
 17 38  1  0
 18 39  1  0
 18 40  1  0
 19 41  1  0
 19 42  1  0
 20 43  1  0
 20 44  1  0
 21 45  1  0
 22 46  1  0
 22 47  1  0
 23 48  1  0
 23 49  1  0
 24 50  1  0
 25 51  1  0
 25 52  1  0
M  CHG  1  21   1
M  END
>  <ScrubInfo>  (3) 
{"isomerGroup": 0, "isomerId": 2, "confId": 0, "nr_conformers:": 1, "nr_isomers:": 3}

$$$$
