_i0
     RDKit          3D

 45 47  0  0  0  0  0  0  0  0999 V2000
    5.2100   -0.3055    1.1963 C   0  0  0  0  0  0  0  0  0  0  0  0
    4.2207   -1.4082    1.5396 C   0  0  0  0  0  0  0  0  0  0  0  0
    3.5359   -2.0218    0.3138 C   0  0  0  0  0  0  0  0  0  0  0  0
    2.6878   -1.0467   -0.5081 C   0  0  0  0  0  0  0  0  0  0  0  0
    1.6016   -0.5251    0.3008 N   0  0  0  0  0  0  0  0  0  0  0  0
    0.7176    0.3014   -0.3835 C   0  0  0  0  0  0  0  0  0  0  0  0
   -0.5704    0.1490   -0.0305 N   0  0  0  0  0  0  0  0  0  0  0  0
   -1.5437    0.9028   -0.6061 C   0  0  0  0  0  0  0  0  0  0  0  0
   -2.8949    0.7651   -0.2287 N   0  0  0  0  0  0  0  0  0  0  0  0
   -3.3832   -0.0226    0.8359 C   0  0  0  0  0  0  0  0  0  0  0  0
   -3.9579    0.6334    1.9396 C   0  0  0  0  0  0  0  0  0  0  0  0
   -4.3988   -0.0808    3.0556 C   0  0  0  0  0  0  0  0  0  0  0  0
   -4.2591   -1.4627    3.0843 C   0  0  0  0  0  0  0  0  0  0  0  0
   -4.7906   -2.3482    4.4604 Cl  0  0  0  0  0  0  0  0  0  0  0  0
   -3.6907   -2.1341    2.0044 C   0  0  0  0  0  0  0  0  0  0  0  0
   -3.2576   -1.4268    0.8672 C   0  0  0  0  0  0  0  0  0  0  0  0
   -2.6684   -2.2133   -0.2724 C   0  0  0  0  0  0  0  0  0  0  0  0
   -1.1411    1.8301   -1.5724 C   0  0  0  0  0  0  0  0  0  0  0  0
   -1.7279    2.7895   -2.4229 C   0  0  0  0  0  0  0  0  0  0  0  0
   -0.8316    3.4304   -3.1815 N   0  0  0  0  0  0  0  0  0  0  0  0
    0.3433    2.8646   -2.8157 N   0  0  0  0  0  0  0  0  0  0  0  0
    1.5679    3.3089   -3.4321 C   0  0  0  0  0  0  0  0  0  0  0  0
    0.2077    1.8958   -1.8593 C   0  0  0  0  0  0  0  0  0  0  0  0
    1.1792    1.1573   -1.3051 N   0  0  0  0  0  0  0  0  0  0  0  0
    4.7047    0.5718    0.7819 H   0  0  0  0  0  0  0  0  0  0  0  0
    5.7421    0.0152    2.0977 H   0  0  0  0  0  0  0  0  0  0  0  0
    5.9519   -0.6542    0.4712 H   0  0  0  0  0  0  0  0  0  0  0  0
    4.7578   -2.2052    2.0681 H   0  0  0  0  0  0  0  0  0  0  0  0
    3.4719   -1.0205    2.2396 H   0  0  0  0  0  0  0  0  0  0  0  0
    4.3000   -2.4592   -0.3406 H   0  0  0  0  0  0  0  0  0  0  0  0
    2.9027   -2.8516    0.6529 H   0  0  0  0  0  0  0  0  0  0  0  0
    2.2840   -1.5878   -1.3735 H   0  0  0  0  0  0  0  0  0  0  0  0
    3.3214   -0.2387   -0.8914 H   0  0  0  0  0  0  0  0  0  0  0  0
    1.0160   -1.2254    0.7462 H   0  0  0  0  0  0  0  0  0  0  0  0
   -3.3941    1.6395   -0.3368 H   0  0  0  0  0  0  0  0  0  0  0  0
   -4.0460    1.7170    1.9476 H   0  0  0  0  0  0  0  0  0  0  0  0
   -4.8341    0.4482    3.8986 H   0  0  0  0  0  0  0  0  0  0  0  0
   -3.5861   -3.2161    2.0410 H   0  0  0  0  0  0  0  0  0  0  0  0
   -2.8219   -1.7130   -1.2334 H   0  0  0  0  0  0  0  0  0  0  0  0
   -3.1534   -3.1926   -0.3537 H   0  0  0  0  0  0  0  0  0  0  0  0
   -1.5983   -2.3725   -0.1115 H   0  0  0  0  0  0  0  0  0  0  0  0
   -2.7734    3.0494   -2.5250 H   0  0  0  0  0  0  0  0  0  0  0  0
    2.4160    2.7553   -3.0231 H   0  0  0  0  0  0  0  0  0  0  0  0
    1.6884    4.3756   -3.2270 H   0  0  0  0  0  0  0  0  0  0  0  0
    1.4945    3.1324   -4.5082 H   0  0  0  0  0  0  0  0  0  0  0  0
  1  2  1  0
  2  3  1  0
  3  4  1  0
  4  5  1  0
  5  6  1  0
  6  7  2  0
  7  8  1  0
  8  9  1  0
  9 10  1  0
 10 11  2  0
 11 12  1  0
 12 13  2  0
 13 14  1  0
 13 15  1  0
 15 16  2  0
 16 17  1  0
  8 18  2  0
 18 19  1  0
 19 20  2  0
 20 21  1  0
 21 22  1  0
 21 23  1  0
 23 24  2  0
 24  6  1  0
 16 10  1  0
 23 18  1  0
  1 25  1  0
  1 26  1  0
  1 27  1  0
  2 28  1  0
  2 29  1  0
  3 30  1  0
  3 31  1  0
  4 32  1  0
  4 33  1  0
  5 34  1  0
  9 35  1  0
 11 36  1  0
 12 37  1  0
 15 38  1  0
 17 39  1  0
 17 40  1  0
 17 41  1  0
 19 42  1  0
 22 43  1  0
 22 44  1  0
 22 45  1  0
M  END
>  <ScrubInfo>  (1) 
{"isomerGroup": 0, "isomerId": 0, "confId": 0, "nr_conformers:": 1, "nr_isomers:": 9}

$$$$
_i1
     RDKit          3D

 45 47  0  0  0  0  0  0  0  0999 V2000
    0.1341    0.6701   -0.1267 N   0  0  0  0  0  0  0  0  0  0  0  0
   -1.0965    1.2588    0.1115 C   0  0  0  0  0  0  0  0  0  0  0  0
   -2.1966    0.5256    0.5199 N   0  0  0  0  0  0  0  0  0  0  0  0
   -2.5326   -0.8067    0.1892 C   0  0  0  0  0  0  0  0  0  0  0  0
   -2.0040   -1.4482   -0.9438 C   0  0  0  0  0  0  0  0  0  0  0  0
   -2.3233   -2.7758   -1.2411 C   0  0  0  0  0  0  0  0  0  0  0  0
   -3.1753   -3.4831   -0.4029 C   0  0  0  0  0  0  0  0  0  0  0  0
   -3.5729   -5.1164   -0.7658 Cl  0  0  0  0  0  0  0  0  0  0  0  0
   -3.7099   -2.8739    0.7294 C   0  0  0  0  0  0  0  0  0  0  0  0
   -3.3914   -1.5394    1.0399 C   0  0  0  0  0  0  0  0  0  0  0  0
   -3.9756   -0.9264    2.2851 C   0  0  0  0  0  0  0  0  0  0  0  0
   -1.1220    2.5904   -0.0190 C   0  0  0  0  0  0  0  0  0  0  0  0
   -2.0849    3.6859    0.1384 C   0  0  0  0  0  0  0  0  0  0  0  0
   -1.5743    4.8623   -0.1214 N   0  0  0  0  0  0  0  0  0  0  0  0
   -0.2500    4.6124   -0.5173 N   0  0  0  0  0  0  0  0  0  0  0  0
    0.6831    5.7115   -0.5813 C   0  0  0  0  0  0  0  0  0  0  0  0
    0.1199    3.2797   -0.4297 C   0  0  0  0  0  0  0  0  0  0  0  0
    1.2599    2.7150   -0.6304 N   0  0  0  0  0  0  0  0  0  0  0  0
    1.2874    1.3499   -0.4477 C   0  0  0  0  0  0  0  0  0  0  0  0
    2.4563    0.8375   -0.6022 N   0  0  0  0  0  0  0  0  0  0  0  0
    2.6241   -0.6022   -0.4456 C   0  0  0  0  0  0  0  0  0  0  0  0
    4.0827   -0.9473   -0.7457 C   0  0  0  0  0  0  0  0  0  0  0  0
    4.3659   -2.4504   -0.7363 C   0  0  0  0  0  0  0  0  0  0  0  0
    4.1796   -3.0945    0.6288 C   0  0  0  0  0  0  0  0  0  0  0  0
    0.2006   -0.3020    0.1304 H   0  0  0  0  0  0  0  0  0  0  0  0
   -3.0028    1.0665    0.8166 H   0  0  0  0  0  0  0  0  0  0  0  0
   -1.3629   -0.9112   -1.6395 H   0  0  0  0  0  0  0  0  0  0  0  0
   -1.9104   -3.2434   -2.1311 H   0  0  0  0  0  0  0  0  0  0  0  0
   -4.3732   -3.4426    1.3776 H   0  0  0  0  0  0  0  0  0  0  0  0
   -4.6668   -0.1199    2.0202 H   0  0  0  0  0  0  0  0  0  0  0  0
   -4.5326   -1.6629    2.8740 H   0  0  0  0  0  0  0  0  0  0  0  0
   -3.1805   -0.5314    2.9258 H   0  0  0  0  0  0  0  0  0  0  0  0
   -3.1159    3.4949    0.4614 H   0  0  0  0  0  0  0  0  0  0  0  0
    0.1864    6.6213   -0.9339 H   0  0  0  0  0  0  0  0  0  0  0  0
    1.1065    5.9096    0.4083 H   0  0  0  0  0  0  0  0  0  0  0  0
    1.5017    5.4892   -1.2732 H   0  0  0  0  0  0  0  0  0  0  0  0
    1.9722   -1.1440   -1.1413 H   0  0  0  0  0  0  0  0  0  0  0  0
    2.3755   -0.8990    0.5792 H   0  0  0  0  0  0  0  0  0  0  0  0
    4.7378   -0.4411   -0.0256 H   0  0  0  0  0  0  0  0  0  0  0  0
    4.3490   -0.5512   -1.7341 H   0  0  0  0  0  0  0  0  0  0  0  0
    5.4015   -2.6107   -1.0590 H   0  0  0  0  0  0  0  0  0  0  0  0
    3.7246   -2.9553   -1.4680 H   0  0  0  0  0  0  0  0  0  0  0  0
    3.1328   -3.0685    0.9451 H   0  0  0  0  0  0  0  0  0  0  0  0
    4.7843   -2.5887    1.3880 H   0  0  0  0  0  0  0  0  0  0  0  0
    4.4885   -4.1442    0.5937 H   0  0  0  0  0  0  0  0  0  0  0  0
  1  2  1  0
  2  3  1  0
  3  4  1  0
  4  5  2  0
  5  6  1  0
  6  7  2  0
  7  8  1  0
  7  9  1  0
  9 10  2  0
 10 11  1  0
  2 12  2  0
 12 13  1  0
 13 14  2  0
 14 15  1  0
 15 16  1  0
 15 17  1  0
 17 18  2  0
 18 19  1  0
 19 20  2  3
 20 21  1  0
 21 22  1  0
 22 23  1  0
 23 24  1  0
 19  1  1  0
 10  4  1  0
 17 12  1  0
  1 25  1  0
  3 26  1  0
  5 27  1  0
  6 28  1  0
  9 29  1  0
 11 30  1  0
 11 31  1  0
 11 32  1  0
 13 33  1  0
 16 34  1  0
 16 35  1  0
 16 36  1  0
 21 37  1  0
 21 38  1  0
 22 39  1  0
 22 40  1  0
 23 41  1  0
 23 42  1  0
 24 43  1  0
 24 44  1  0
 24 45  1  0
M  END
>  <ScrubInfo>  (2) 
{"isomerGroup": 0, "isomerId": 1, "confId": 0, "nr_conformers:": 1, "nr_isomers:": 9}

$$$$
_i2
     RDKit          3D

 45 47  0  0  0  0  0  0  0  0999 V2000
   -0.5076    0.3953   -0.0690 N   0  0  0  0  0  0  0  0  0  0  0  0
    0.7320    0.9744    0.0717 C   0  0  0  0  0  0  0  0  0  0  0  0
    1.7706    0.1168    0.3066 N   0  0  0  0  0  0  0  0  0  0  0  0
    2.0230   -1.0393   -0.5451 C   0  0  0  0  0  0  0  0  0  0  0  0
    3.2038   -1.8562   -0.0174 C   0  0  0  0  0  0  0  0  0  0  0  0
    4.5529   -1.1631   -0.2243 C   0  0  0  0  0  0  0  0  0  0  0  0
    5.7044   -2.0436    0.2370 C   0  0  0  0  0  0  0  0  0  0  0  0
    0.9595    2.2637    0.0139 N   0  0  0  0  0  0  0  0  0  0  0  0
   -0.1883    2.9599   -0.2249 C   0  0  0  0  0  0  0  0  0  0  0  0
   -1.4688    2.4644   -0.3784 C   0  0  0  0  0  0  0  0  0  0  0  0
   -2.2775    3.5868   -0.6000 C   0  0  0  0  0  0  0  0  0  0  0  0
   -1.5735    4.7268   -0.5953 N   0  0  0  0  0  0  0  0  0  0  0  0
   -0.3019    4.3158   -0.3603 N   0  0  0  0  0  0  0  0  0  0  0  0
    0.7524    5.2947   -0.2793 C   0  0  0  0  0  0  0  0  0  0  0  0
   -1.7039    1.0467   -0.2807 C   0  0  0  0  0  0  0  0  0  0  0  0
   -2.9136    0.6064   -0.3826 N   0  0  0  0  0  0  0  0  0  0  0  0
   -3.1165   -0.7765   -0.2793 C   0  0  0  0  0  0  0  0  0  0  0  0
   -3.0715   -1.5582   -1.4404 C   0  0  0  0  0  0  0  0  0  0  0  0
   -3.2547   -2.9401   -1.3763 C   0  0  0  0  0  0  0  0  0  0  0  0
   -3.4922   -3.5444   -0.1455 C   0  0  0  0  0  0  0  0  0  0  0  0
   -3.7064   -5.2491   -0.0590 Cl  0  0  0  0  0  0  0  0  0  0  0  0
   -3.5581   -2.7779    1.0180 C   0  0  0  0  0  0  0  0  0  0  0  0
   -3.3846   -1.3855    0.9604 C   0  0  0  0  0  0  0  0  0  0  0  0
   -3.4666   -0.5682    2.2195 C   0  0  0  0  0  0  0  0  0  0  0  0
   -0.5731   -0.5812    0.1630 H   0  0  0  0  0  0  0  0  0  0  0  0
    2.6114    0.6804    0.4199 H   0  0  0  0  0  0  0  0  0  0  0  0
    2.2121   -0.7120   -1.5739 H   0  0  0  0  0  0  0  0  0  0  0  0
    1.1413   -1.6893   -0.5612 H   0  0  0  0  0  0  0  0  0  0  0  0
    3.0599   -2.0764    1.0476 H   0  0  0  0  0  0  0  0  0  0  0  0
    3.2181   -2.8183   -0.5447 H   0  0  0  0  0  0  0  0  0  0  0  0
    4.5882   -0.2197    0.3308 H   0  0  0  0  0  0  0  0  0  0  0  0
    4.6886   -0.9220   -1.2849 H   0  0  0  0  0  0  0  0  0  0  0  0
    5.7288   -2.9837   -0.3233 H   0  0  0  0  0  0  0  0  0  0  0  0
    5.6148   -2.2799    1.3021 H   0  0  0  0  0  0  0  0  0  0  0  0
    6.6589   -1.5311    0.0817 H   0  0  0  0  0  0  0  0  0  0  0  0
   -3.3466    3.6242   -0.7640 H   0  0  0  0  0  0  0  0  0  0  0  0
    0.5195    5.9839    0.5363 H   0  0  0  0  0  0  0  0  0  0  0  0
    0.7977    5.8304   -1.2309 H   0  0  0  0  0  0  0  0  0  0  0  0
    1.7082    4.8029   -0.0861 H   0  0  0  0  0  0  0  0  0  0  0  0
   -2.8971   -1.0803   -2.4017 H   0  0  0  0  0  0  0  0  0  0  0  0
   -3.2175   -3.5327   -2.2862 H   0  0  0  0  0  0  0  0  0  0  0  0
   -3.7552   -3.2639    1.9710 H   0  0  0  0  0  0  0  0  0  0  0  0
   -3.8561   -1.1601    3.0546 H   0  0  0  0  0  0  0  0  0  0  0  0
   -4.1419    0.2827    2.0830 H   0  0  0  0  0  0  0  0  0  0  0  0
   -2.4730   -0.2034    2.4978 H   0  0  0  0  0  0  0  0  0  0  0  0
  1  2  1  0
  2  3  1  0
  3  4  1  0
  4  5  1  0
  5  6  1  0
  6  7  1  0
  2  8  2  0
  8  9  1  0
  9 10  2  0
 10 11  1  0
 11 12  2  0
 12 13  1  0
 13 14  1  0
 10 15  1  0
 15 16  2  3
 16 17  1  0
 17 18  2  0
 18 19  1  0
 19 20  2  0
 20 21  1  0
 20 22  1  0
 22 23  2  0
 23 24  1  0
 15  1  1  0
 23 17  1  0
 13  9  1  0
  1 25  1  0
  3 26  1  0
  4 27  1  0
  4 28  1  0
  5 29  1  0
  5 30  1  0
  6 31  1  0
  6 32  1  0
  7 33  1  0
  7 34  1  0
  7 35  1  0
 11 36  1  0
 14 37  1  0
 14 38  1  0
 14 39  1  0
 18 40  1  0
 19 41  1  0
 22 42  1  0
 24 43  1  0
 24 44  1  0
 24 45  1  0
M  END
>  <ScrubInfo>  (3) 
{"isomerGroup": 0, "isomerId": 2, "confId": 0, "nr_conformers:": 1, "nr_isomers:": 9}

$$$$
_i3
     RDKit          3D

 45 47  0  0  0  0  0  0  0  0999 V2000
    0.7984    2.3717   -0.2620 N   0  0  0  0  0  0  0  0  0  0  0  0
    1.3646    1.1241   -0.4064 C   0  0  0  0  0  0  0  0  0  0  0  0
    2.6302    1.0004   -0.1693 N   0  0  0  0  0  0  0  0  0  0  0  0
    3.2098   -0.3347   -0.3282 C   0  0  0  0  0  0  0  0  0  0  0  0
    4.7014   -0.2430   -0.0037 C   0  0  0  0  0  0  0  0  0  0  0  0
    5.4578   -1.5503   -0.2446 C   0  0  0  0  0  0  0  0  0  0  0  0
    5.0240   -2.6807    0.6757 C   0  0  0  0  0  0  0  0  0  0  0  0
    0.6150    0.0211   -0.7900 N   0  0  0  0  0  0  0  0  0  0  0  0
   -0.6649    0.1668   -1.0043 C   0  0  0  0  0  0  0  0  0  0  0  0
   -1.4635   -0.8801   -1.3937 N   0  0  0  0  0  0  0  0  0  0  0  0
   -2.6734   -1.2362   -0.7426 C   0  0  0  0  0  0  0  0  0  0  0  0
   -3.7519   -1.5962   -1.5701 C   0  0  0  0  0  0  0  0  0  0  0  0
   -4.9719   -2.0044   -1.0301 C   0  0  0  0  0  0  0  0  0  0  0  0
   -5.1164   -2.0832    0.3489 C   0  0  0  0  0  0  0  0  0  0  0  0
   -6.6179   -2.5795    1.0252 Cl  0  0  0  0  0  0  0  0  0  0  0  0
   -4.0450   -1.7775    1.1867 C   0  0  0  0  0  0  0  0  0  0  0  0
   -2.8039   -1.3790    0.6544 C   0  0  0  0  0  0  0  0  0  0  0  0
   -1.6750   -1.1120    1.6133 C   0  0  0  0  0  0  0  0  0  0  0  0
   -1.2941    1.4642   -0.8870 C   0  0  0  0  0  0  0  0  0  0  0  0
   -2.5646    2.0315   -1.0691 C   0  0  0  0  0  0  0  0  0  0  0  0
   -2.5784    3.3497   -0.8122 N   0  0  0  0  0  0  0  0  0  0  0  0
   -1.2962    3.6269   -0.4694 N   0  0  0  0  0  0  0  0  0  0  0  0
   -0.9368    4.9797   -0.1291 C   0  0  0  0  0  0  0  0  0  0  0  0
   -0.5106    2.5207   -0.5110 C   0  0  0  0  0  0  0  0  0  0  0  0
    1.4447    3.1010    0.0077 H   0  0  0  0  0  0  0  0  0  0  0  0
    3.0852   -0.6886   -1.3587 H   0  0  0  0  0  0  0  0  0  0  0  0
    2.7258   -1.0411    0.3557 H   0  0  0  0  0  0  0  0  0  0  0  0
    5.1558    0.5394   -0.6252 H   0  0  0  0  0  0  0  0  0  0  0  0
    4.8340    0.0768    1.0375 H   0  0  0  0  0  0  0  0  0  0  0  0
    6.5277   -1.3661   -0.0897 H   0  0  0  0  0  0  0  0  0  0  0  0
    5.3384   -1.8637   -1.2882 H   0  0  0  0  0  0  0  0  0  0  0  0
    5.6636   -3.5559    0.5224 H   0  0  0  0  0  0  0  0  0  0  0  0
    5.1020   -2.3842    1.7265 H   0  0  0  0  0  0  0  0  0  0  0  0
    3.9926   -2.9863    0.4772 H   0  0  0  0  0  0  0  0  0  0  0  0
   -0.8870   -1.7167   -1.4636 H   0  0  0  0  0  0  0  0  0  0  0  0
   -3.6468   -1.5358   -2.6520 H   0  0  0  0  0  0  0  0  0  0  0  0
   -5.7984   -2.2563   -1.6889 H   0  0  0  0  0  0  0  0  0  0  0  0
   -4.1723   -1.8633    2.2642 H   0  0  0  0  0  0  0  0  0  0  0  0
   -1.5281   -0.0359    1.7415 H   0  0  0  0  0  0  0  0  0  0  0  0
   -1.8833   -1.5404    2.6000 H   0  0  0  0  0  0  0  0  0  0  0  0
   -0.7484   -1.5769    1.2628 H   0  0  0  0  0  0  0  0  0  0  0  0
   -3.4856    1.5544   -1.3770 H   0  0  0  0  0  0  0  0  0  0  0  0
    0.1156    5.0246    0.1589 H   0  0  0  0  0  0  0  0  0  0  0  0
   -1.5624    5.3031    0.7067 H   0  0  0  0  0  0  0  0  0  0  0  0
   -1.1099    5.6118   -1.0037 H   0  0  0  0  0  0  0  0  0  0  0  0
  1  2  1  0
  2  3  2  3
  3  4  1  0
  4  5  1  0
  5  6  1  0
  6  7  1  0
  2  8  1  0
  8  9  2  0
  9 10  1  0
 10 11  1  0
 11 12  2  0
 12 13  1  0
 13 14  2  0
 14 15  1  0
 14 16  1  0
 16 17  2  0
 17 18  1  0
  9 19  1  0
 19 20  1  0
 20 21  2  0
 21 22  1  0
 22 23  1  0
 22 24  1  0
 24  1  1  0
 17 11  1  0
 24 19  2  0
  1 25  1  0
  4 26  1  0
  4 27  1  0
  5 28  1  0
  5 29  1  0
  6 30  1  0
  6 31  1  0
  7 32  1  0
  7 33  1  0
  7 34  1  0
 10 35  1  0
 12 36  1  0
 13 37  1  0
 16 38  1  0
 18 39  1  0
 18 40  1  0
 18 41  1  0
 20 42  1  0
 23 43  1  0
 23 44  1  0
 23 45  1  0
M  END
>  <ScrubInfo>  (4) 
{"isomerGroup": 0, "isomerId": 3, "confId": 0, "nr_conformers:": 1, "nr_isomers:": 9}

$$$$
_i4
     RDKit          3D

 45 47  0  0  0  0  0  0  0  0999 V2000
   -1.0858   -3.1344   -3.6333 N   0  0  0  0  0  0  0  0  0  0  0  0
   -1.9523   -2.4553   -2.7822 C   0  0  0  0  0  0  0  0  0  0  0  0
   -1.3147   -1.8236   -1.7885 C   0  0  0  0  0  0  0  0  0  0  0  0
   -1.6606   -0.9688   -0.6773 C   0  0  0  0  0  0  0  0  0  0  0  0
   -2.8893   -0.6604   -0.3994 N   0  0  0  0  0  0  0  0  0  0  0  0
   -3.1363    0.1844    0.6944 C   0  0  0  0  0  0  0  0  0  0  0  0
   -3.2726   -0.3719    1.9731 C   0  0  0  0  0  0  0  0  0  0  0  0
   -3.5379    0.4368    3.0791 C   0  0  0  0  0  0  0  0  0  0  0  0
   -3.6785    1.8102    2.9059 C   0  0  0  0  0  0  0  0  0  0  0  0
   -3.9997    2.8139    4.2666 Cl  0  0  0  0  0  0  0  0  0  0  0  0
   -3.5639    2.3795    1.6378 C   0  0  0  0  0  0  0  0  0  0  0  0
   -3.3034    1.5708    0.5193 C   0  0  0  0  0  0  0  0  0  0  0  0
   -3.1783    2.1926   -0.8423 C   0  0  0  0  0  0  0  0  0  0  0  0
   -0.5869   -0.5102    0.0387 N   0  0  0  0  0  0  0  0  0  0  0  0
    0.6386   -0.8480   -0.2454 C   0  0  0  0  0  0  0  0  0  0  0  0
    1.6023   -0.3108    0.5571 N   0  0  0  0  0  0  0  0  0  0  0  0
    2.9848   -0.1885    0.1510 C   0  0  0  0  0  0  0  0  0  0  0  0
    3.8417    0.3690    1.2887 C   0  0  0  0  0  0  0  0  0  0  0  0
    3.5931    1.8575    1.5471 C   0  0  0  0  0  0  0  0  0  0  0  0
    4.5069    2.3902    2.6402 C   0  0  0  0  0  0  0  0  0  0  0  0
    1.0224   -1.6807   -1.2663 N   0  0  0  0  0  0  0  0  0  0  0  0
    0.0929   -2.1765   -2.0061 C   0  0  0  0  0  0  0  0  0  0  0  0
    0.1928   -3.0585   -3.0838 N   0  0  0  0  0  0  0  0  0  0  0  0
    1.3403   -3.0290   -3.9691 C   0  0  0  0  0  0  0  0  0  0  0  0
   -1.4146   -4.0720   -3.8761 H   0  0  0  0  0  0  0  0  0  0  0  0
   -3.0172   -2.4812   -2.9668 H   0  0  0  0  0  0  0  0  0  0  0  0
   -3.1616   -1.4451    2.1025 H   0  0  0  0  0  0  0  0  0  0  0  0
   -3.6313   -0.0108    4.0640 H   0  0  0  0  0  0  0  0  0  0  0  0
   -3.6803    3.4536    1.5182 H   0  0  0  0  0  0  0  0  0  0  0  0
   -3.4705    3.2480   -0.8284 H   0  0  0  0  0  0  0  0  0  0  0  0
   -3.8319    1.6843   -1.5587 H   0  0  0  0  0  0  0  0  0  0  0  0
   -2.1421    2.1347   -1.1904 H   0  0  0  0  0  0  0  0  0  0  0  0
    1.2275    0.4311    1.1352 H   0  0  0  0  0  0  0  0  0  0  0  0
    3.0640    0.4533   -0.7340 H   0  0  0  0  0  0  0  0  0  0  0  0
    3.3746   -1.1771   -0.1184 H   0  0  0  0  0  0  0  0  0  0  0  0
    4.8974    0.2294    1.0249 H   0  0  0  0  0  0  0  0  0  0  0  0
    3.6623   -0.2023    2.2079 H   0  0  0  0  0  0  0  0  0  0  0  0
    2.5526    2.0269    1.8442 H   0  0  0  0  0  0  0  0  0  0  0  0
    3.7648    2.4280    0.6269 H   0  0  0  0  0  0  0  0  0  0  0  0
    4.3151    3.4544    2.8091 H   0  0  0  0  0  0  0  0  0  0  0  0
    4.3395    1.8607    3.5836 H   0  0  0  0  0  0  0  0  0  0  0  0
    5.5596    2.2749    2.3628 H   0  0  0  0  0  0  0  0  0  0  0  0
    1.3830   -2.0835   -4.5197 H   0  0  0  0  0  0  0  0  0  0  0  0
    1.2852   -3.8500   -4.6913 H   0  0  0  0  0  0  0  0  0  0  0  0
    2.2685   -3.1457   -3.4007 H   0  0  0  0  0  0  0  0  0  0  0  0
  1  2  1  0
  2  3  2  0
  3  4  1  0
  4  5  2  3
  5  6  1  0
  6  7  2  0
  7  8  1  0
  8  9  2  0
  9 10  1  0
  9 11  1  0
 11 12  2  0
 12 13  1  0
  4 14  1  0
 14 15  2  0
 15 16  1  0
 16 17  1  0
 17 18  1  0
 18 19  1  0
 19 20  1  0
 15 21  1  0
 21 22  2  0
 22 23  1  0
 23 24  1  0
 23  1  1  0
 22  3  1  0
 12  6  1  0
  1 25  1  0
  2 26  1  0
  7 27  1  0
  8 28  1  0
 11 29  1  0
 13 30  1  0
 13 31  1  0
 13 32  1  0
 16 33  1  0
 17 34  1  0
 17 35  1  0
 18 36  1  0
 18 37  1  0
 19 38  1  0
 19 39  1  0
 20 40  1  0
 20 41  1  0
 20 42  1  0
 24 43  1  0
 24 44  1  0
 24 45  1  0
M  END
>  <ScrubInfo>  (5) 
{"isomerGroup": 0, "isomerId": 4, "confId": 0, "nr_conformers:": 1, "nr_isomers:": 9}

$$$$
_i5
     RDKit          3D

 45 47  0  0  0  0  0  0  0  0999 V2000
    0.9792    0.9507    0.5999 N   0  0  0  0  0  0  0  0  0  0  0  0
    1.1738   -0.2723    0.0100 C   0  0  0  0  0  0  0  0  0  0  0  0
    2.4775   -0.6001   -0.2305 N   0  0  0  0  0  0  0  0  0  0  0  0
    3.3504    0.2733   -1.0050 C   0  0  0  0  0  0  0  0  0  0  0  0
    4.7523   -0.3285   -1.1090 C   0  0  0  0  0  0  0  0  0  0  0  0
    5.4773   -0.3628    0.2386 C   0  0  0  0  0  0  0  0  0  0  0  0
    6.8852   -0.9199    0.0973 C   0  0  0  0  0  0  0  0  0  0  0  0
    0.2362   -1.1190   -0.3052 N   0  0  0  0  0  0  0  0  0  0  0  0
   -1.0948   -0.8011   -0.0597 C   0  0  0  0  0  0  0  0  0  0  0  0
   -1.9659   -1.6750   -0.4538 N   0  0  0  0  0  0  0  0  0  0  0  0
   -3.3398   -1.5028   -0.2794 C   0  0  0  0  0  0  0  0  0  0  0  0
   -3.9468   -2.0220    0.8717 C   0  0  0  0  0  0  0  0  0  0  0  0
   -5.3223   -1.8959    1.0714 C   0  0  0  0  0  0  0  0  0  0  0  0
   -6.0999   -1.2606    0.1080 C   0  0  0  0  0  0  0  0  0  0  0  0
   -7.7953   -1.0966    0.3513 Cl  0  0  0  0  0  0  0  0  0  0  0  0
   -5.5159   -0.7614   -1.0562 C   0  0  0  0  0  0  0  0  0  0  0  0
   -4.1337   -0.8928   -1.2688 C   0  0  0  0  0  0  0  0  0  0  0  0
   -3.5180   -0.3652   -2.5342 C   0  0  0  0  0  0  0  0  0  0  0  0
   -1.3485    0.4666    0.6062 C   0  0  0  0  0  0  0  0  0  0  0  0
   -2.4545    1.1848    1.0958 C   0  0  0  0  0  0  0  0  0  0  0  0
   -2.1094    2.3512    1.6650 N   0  0  0  0  0  0  0  0  0  0  0  0
   -0.7638    2.3837    1.5399 N   0  0  0  0  0  0  0  0  0  0  0  0
   -0.0402    3.5194    2.0517 C   0  0  0  0  0  0  0  0  0  0  0  0
   -0.2859    1.2814    0.9076 C   0  0  0  0  0  0  0  0  0  0  0  0
    1.7938    1.4043    0.9900 H   0  0  0  0  0  0  0  0  0  0  0  0
    2.4852   -1.5442   -0.6167 H   0  0  0  0  0  0  0  0  0  0  0  0
    2.9351    0.3919   -2.0126 H   0  0  0  0  0  0  0  0  0  0  0  0
    3.4109    1.2687   -0.5514 H   0  0  0  0  0  0  0  0  0  0  0  0
    5.3372    0.2728   -1.8158 H   0  0  0  0  0  0  0  0  0  0  0  0
    4.6943   -1.3430   -1.5227 H   0  0  0  0  0  0  0  0  0  0  0  0
    5.5318    0.6489    0.6573 H   0  0  0  0  0  0  0  0  0  0  0  0
    4.9214   -0.9802    0.9532 H   0  0  0  0  0  0  0  0  0  0  0  0
    7.4840   -0.3058   -0.5829 H   0  0  0  0  0  0  0  0  0  0  0  0
    7.3860   -0.9354    1.0704 H   0  0  0  0  0  0  0  0  0  0  0  0
    6.8648   -1.9433   -0.2907 H   0  0  0  0  0  0  0  0  0  0  0  0
   -3.3372   -2.5304    1.6150 H   0  0  0  0  0  0  0  0  0  0  0  0
   -5.7758   -2.2982    1.9728 H   0  0  0  0  0  0  0  0  0  0  0  0
   -6.1389   -0.2775   -1.8047 H   0  0  0  0  0  0  0  0  0  0  0  0
   -4.2849   -0.0806   -3.2625 H   0  0  0  0  0  0  0  0  0  0  0  0
   -2.8919   -1.1296   -3.0058 H   0  0  0  0  0  0  0  0  0  0  0  0
   -2.9117    0.5202   -2.3195 H   0  0  0  0  0  0  0  0  0  0  0  0
   -3.5039    0.9257    1.0776 H   0  0  0  0  0  0  0  0  0  0  0  0
    1.0074    3.4612    1.7491 H   0  0  0  0  0  0  0  0  0  0  0  0
   -0.4890    4.4294    1.6452 H   0  0  0  0  0  0  0  0  0  0  0  0
   -0.1154    3.5100    3.1419 H   0  0  0  0  0  0  0  0  0  0  0  0
  1  2  1  0
  2  3  1  0
  3  4  1  0
  4  5  1  0
  5  6  1  0
  6  7  1  0
  2  8  2  0
  8  9  1  0
  9 10  2  3
 10 11  1  0
 11 12  2  0
 12 13  1  0
 13 14  2  0
 14 15  1  0
 14 16  1  0
 16 17  2  0
 17 18  1  0
  9 19  1  0
 19 20  1  0
 20 21  2  0
 21 22  1  0
 22 23  1  0
 22 24  1  0
 24  1  1  0
 17 11  1  0
 24 19  2  0
  1 25  1  0
  3 26  1  0
  4 27  1  0
  4 28  1  0
  5 29  1  0
  5 30  1  0
  6 31  1  0
  6 32  1  0
  7 33  1  0
  7 34  1  0
  7 35  1  0
 12 36  1  0
 13 37  1  0
 16 38  1  0
 18 39  1  0
 18 40  1  0
 18 41  1  0
 20 42  1  0
 23 43  1  0
 23 44  1  0
 23 45  1  0
M  END
>  <ScrubInfo>  (6) 
{"isomerGroup": 0, "isomerId": 5, "confId": 0, "nr_conformers:": 1, "nr_isomers:": 9}

$$$$
_i6
     RDKit          3D

 45 47  0  0  0  0  0  0  0  0999 V2000
   -1.5856   -3.2773   -2.1501 N   0  0  0  0  0  0  0  0  0  0  0  0
   -1.8261   -1.9821   -1.7038 C   0  0  0  0  0  0  0  0  0  0  0  0
   -0.7012   -1.2935   -1.4689 C   0  0  0  0  0  0  0  0  0  0  0  0
   -0.2961    0.0289   -0.9975 C   0  0  0  0  0  0  0  0  0  0  0  0
   -1.1848    1.0302   -0.6659 N   0  0  0  0  0  0  0  0  0  0  0  0
   -2.2884    0.8518    0.2060 C   0  0  0  0  0  0  0  0  0  0  0  0
   -2.2530   -0.0835    1.2536 C   0  0  0  0  0  0  0  0  0  0  0  0
   -3.3235   -0.2060    2.1425 C   0  0  0  0  0  0  0  0  0  0  0  0
   -4.4308    0.6232    2.0063 C   0  0  0  0  0  0  0  0  0  0  0  0
   -5.7501    0.4751    3.0999 Cl  0  0  0  0  0  0  0  0  0  0  0  0
   -4.4729    1.5804    0.9948 C   0  0  0  0  0  0  0  0  0  0  0  0
   -3.4021    1.7110    0.0943 C   0  0  0  0  0  0  0  0  0  0  0  0
   -3.4703    2.7570   -0.9859 C   0  0  0  0  0  0  0  0  0  0  0  0
    0.9788    0.2939   -0.9145 N   0  0  0  0  0  0  0  0  0  0  0  0
    1.8889   -0.6965   -1.2277 C   0  0  0  0  0  0  0  0  0  0  0  0
    3.1422   -0.4909   -1.0323 N   0  0  0  0  0  0  0  0  0  0  0  0
    3.5897    0.7937   -0.5028 C   0  0  0  0  0  0  0  0  0  0  0  0
    3.6289    0.7388    1.0236 C   0  0  0  0  0  0  0  0  0  0  0  0
    4.1395    2.0518    1.6149 C   0  0  0  0  0  0  0  0  0  0  0  0
    4.1794    2.0003    3.1339 C   0  0  0  0  0  0  0  0  0  0  0  0
    1.6066   -1.9409   -1.7392 N   0  0  0  0  0  0  0  0  0  0  0  0
    0.3617   -2.2367   -1.8738 C   0  0  0  0  0  0  0  0  0  0  0  0
   -0.2181   -3.4028   -2.3736 N   0  0  0  0  0  0  0  0  0  0  0  0
    0.4191   -4.6921   -2.1871 C   0  0  0  0  0  0  0  0  0  0  0  0
   -2.1930   -3.5606   -2.9228 H   0  0  0  0  0  0  0  0  0  0  0  0
   -2.8466   -1.6445   -1.5905 H   0  0  0  0  0  0  0  0  0  0  0  0
   -0.6739    1.8664   -0.3875 H   0  0  0  0  0  0  0  0  0  0  0  0
   -1.3844   -0.7217    1.4021 H   0  0  0  0  0  0  0  0  0  0  0  0
   -3.2792   -0.9415    2.9416 H   0  0  0  0  0  0  0  0  0  0  0  0
   -5.3416    2.2297    0.9088 H   0  0  0  0  0  0  0  0  0  0  0  0
   -4.4161    3.3083   -0.9529 H   0  0  0  0  0  0  0  0  0  0  0  0
   -3.3960    2.2889   -1.9729 H   0  0  0  0  0  0  0  0  0  0  0  0
   -2.6595    3.4822   -0.8633 H   0  0  0  0  0  0  0  0  0  0  0  0
    2.9831    1.6362   -0.8561 H   0  0  0  0  0  0  0  0  0  0  0  0
    4.6008    0.9773   -0.8854 H   0  0  0  0  0  0  0  0  0  0  0  0
    4.2749   -0.0884    1.3435 H   0  0  0  0  0  0  0  0  0  0  0  0
    2.6276    0.5235    1.4161 H   0  0  0  0  0  0  0  0  0  0  0  0
    3.4917    2.8784    1.3003 H   0  0  0  0  0  0  0  0  0  0  0  0
    5.1456    2.2652    1.2357 H   0  0  0  0  0  0  0  0  0  0  0  0
    4.5475    2.9495    3.5357 H   0  0  0  0  0  0  0  0  0  0  0  0
    3.1815    1.8208    3.5466 H   0  0  0  0  0  0  0  0  0  0  0  0
    4.8441    1.2033    3.4820 H   0  0  0  0  0  0  0  0  0  0  0  0
    1.4428   -4.6761   -2.5744 H   0  0  0  0  0  0  0  0  0  0  0  0
   -0.1304   -5.4698   -2.7273 H   0  0  0  0  0  0  0  0  0  0  0  0
    0.4494   -4.9609   -1.1260 H   0  0  0  0  0  0  0  0  0  0  0  0
  1  2  1  0
  2  3  2  0
  3  4  1  0
  4  5  1  0
  5  6  1  0
  6  7  2  0
  7  8  1  0
  8  9  2  0
  9 10  1  0
  9 11  1  0
 11 12  2  0
 12 13  1  0
  4 14  2  0
 14 15  1  0
 15 16  2  3
 16 17  1  0
 17 18  1  0
 18 19  1  0
 19 20  1  0
 15 21  1  0
 21 22  2  0
 22 23  1  0
 23 24  1  0
 23  1  1  0
 22  3  1  0
 12  6  1  0
  1 25  1  0
  2 26  1  0
  5 27  1  0
  7 28  1  0
  8 29  1  0
 11 30  1  0
 13 31  1  0
 13 32  1  0
 13 33  1  0
 17 34  1  0
 17 35  1  0
 18 36  1  0
 18 37  1  0
 19 38  1  0
 19 39  1  0
 20 40  1  0
 20 41  1  0
 20 42  1  0
 24 43  1  0
 24 44  1  0
 24 45  1  0
M  END
>  <ScrubInfo>  (7) 
{"isomerGroup": 0, "isomerId": 6, "confId": 0, "nr_conformers:": 1, "nr_isomers:": 9}

$$$$
_i7
     RDKit          3D

 45 47  0  0  0  0  0  0  0  0999 V2000
   -1.8932   -2.9423   -1.7346 N   0  0  0  0  0  0  0  0  0  0  0  0
   -2.0860   -1.7742   -1.0060 C   0  0  0  0  0  0  0  0  0  0  0  0
   -0.9668   -1.0544   -0.8427 C   0  0  0  0  0  0  0  0  0  0  0  0
   -0.4960    0.1787   -0.1868 C   0  0  0  0  0  0  0  0  0  0  0  0
   -1.1678    1.0600    0.4949 N   0  0  0  0  0  0  0  0  0  0  0  0
   -2.5454    0.9167    0.6937 C   0  0  0  0  0  0  0  0  0  0  0  0
   -3.0000    0.2347    1.8298 C   0  0  0  0  0  0  0  0  0  0  0  0
   -4.3662    0.0847    2.0718 C   0  0  0  0  0  0  0  0  0  0  0  0
   -5.2849    0.6311    1.1809 C   0  0  0  0  0  0  0  0  0  0  0  0
   -6.9702    0.4404    1.4682 Cl  0  0  0  0  0  0  0  0  0  0  0  0
   -4.8491    1.3344    0.0578 C   0  0  0  0  0  0  0  0  0  0  0  0
   -3.4759    1.4971   -0.1881 C   0  0  0  0  0  0  0  0  0  0  0  0
   -3.0190    2.2671   -1.3952 C   0  0  0  0  0  0  0  0  0  0  0  0
    0.8506    0.3774   -0.3422 N   0  0  0  0  0  0  0  0  0  0  0  0
    1.7387   -0.4250   -1.0132 C   0  0  0  0  0  0  0  0  0  0  0  0
    3.0068   -0.2477   -1.1169 N   0  0  0  0  0  0  0  0  0  0  0  0
    3.6628    0.9046   -0.5143 C   0  0  0  0  0  0  0  0  0  0  0  0
    4.0388    0.5933    0.9328 C   0  0  0  0  0  0  0  0  0  0  0  0
    4.7713    1.7665    1.5820 C   0  0  0  0  0  0  0  0  0  0  0  0
    5.1480    1.4596    3.0226 C   0  0  0  0  0  0  0  0  0  0  0  0
    1.3054   -1.5578   -1.6703 N   0  0  0  0  0  0  0  0  0  0  0  0
    0.0462   -1.8547   -1.6132 C   0  0  0  0  0  0  0  0  0  0  0  0
   -0.5942   -2.9372   -2.2205 N   0  0  0  0  0  0  0  0  0  0  0  0
    0.0967   -4.1975   -2.4164 C   0  0  0  0  0  0  0  0  0  0  0  0
   -2.6301   -3.1222   -2.4204 H   0  0  0  0  0  0  0  0  0  0  0  0
   -3.0810   -1.5573   -0.6472 H   0  0  0  0  0  0  0  0  0  0  0  0
   -2.2795   -0.1816    2.5297 H   0  0  0  0  0  0  0  0  0  0  0  0
   -4.7024   -0.4521    2.9546 H   0  0  0  0  0  0  0  0  0  0  0  0
   -5.5800    1.7655   -0.6225 H   0  0  0  0  0  0  0  0  0  0  0  0
   -3.8531    2.7914   -1.8736 H   0  0  0  0  0  0  0  0  0  0  0  0
   -2.5795    1.5882   -2.1325 H   0  0  0  0  0  0  0  0  0  0  0  0
   -2.2806    3.0244   -1.1121 H   0  0  0  0  0  0  0  0  0  0  0  0
    1.2090    1.1919    0.1274 H   0  0  0  0  0  0  0  0  0  0  0  0
    3.0552    1.8141   -0.5845 H   0  0  0  0  0  0  0  0  0  0  0  0
    4.5728    1.1110   -1.0900 H   0  0  0  0  0  0  0  0  0  0  0  0
    4.6728   -0.3018    0.9615 H   0  0  0  0  0  0  0  0  0  0  0  0
    3.1379    0.3567    1.5116 H   0  0  0  0  0  0  0  0  0  0  0  0
    4.1365    2.6600    1.5590 H   0  0  0  0  0  0  0  0  0  0  0  0
    5.6798    1.9988    1.0144 H   0  0  0  0  0  0  0  0  0  0  0  0
    5.6708    2.3120    3.4675 H   0  0  0  0  0  0  0  0  0  0  0  0
    4.2578    1.2545    3.6257 H   0  0  0  0  0  0  0  0  0  0  0  0
    5.8092    0.5889    3.0782 H   0  0  0  0  0  0  0  0  0  0  0  0
    0.3429   -4.6595   -1.4547 H   0  0  0  0  0  0  0  0  0  0  0  0
   -0.5312   -4.8914   -2.9848 H   0  0  0  0  0  0  0  0  0  0  0  0
    1.0224   -4.0470   -2.9811 H   0  0  0  0  0  0  0  0  0  0  0  0
  1  2  1  0
  2  3  2  0
  3  4  1  0
  4  5  2  3
  5  6  1  0
  6  7  2  0
  7  8  1  0
  8  9  2  0
  9 10  1  0
  9 11  1  0
 11 12  2  0
 12 13  1  0
  4 14  1  0
 14 15  1  0
 15 16  2  3
 16 17  1  0
 17 18  1  0
 18 19  1  0
 19 20  1  0
 15 21  1  0
 21 22  2  0
 22 23  1  0
 23 24  1  0
 23  1  1  0
 22  3  1  0
 12  6  1  0
  1 25  1  0
  2 26  1  0
  7 27  1  0
  8 28  1  0
 11 29  1  0
 13 30  1  0
 13 31  1  0
 13 32  1  0
 14 33  1  0
 17 34  1  0
 17 35  1  0
 18 36  1  0
 18 37  1  0
 19 38  1  0
 19 39  1  0
 20 40  1  0
 20 41  1  0
 20 42  1  0
 24 43  1  0
 24 44  1  0
 24 45  1  0
M  END
>  <ScrubInfo>  (8) 
{"isomerGroup": 0, "isomerId": 7, "confId": 0, "nr_conformers:": 1, "nr_isomers:": 9}

$$$$
_i8
     RDKit          3D

 45 47  0  0  0  0  0  0  0  0999 V2000
    0.8015    2.2113   -0.1357 N   0  0  0  0  0  0  0  0  0  0  0  0
    1.4687    1.0080   -0.2372 C   0  0  0  0  0  0  0  0  0  0  0  0
    2.7586    1.0198   -0.1975 N   0  0  0  0  0  0  0  0  0  0  0  0
    3.4642   -0.2553   -0.3052 C   0  0  0  0  0  0  0  0  0  0  0  0
    4.9654    0.0253   -0.2396 C   0  0  0  0  0  0  0  0  0  0  0  0
    5.8269   -1.2189   -0.4606 C   0  0  0  0  0  0  0  0  0  0  0  0
    5.6738   -2.2647    0.6329 C   0  0  0  0  0  0  0  0  0  0  0  0
    0.6228   -0.0761   -0.3715 N   0  0  0  0  0  0  0  0  0  0  0  0
   -0.7554   -0.1523   -0.4225 C   0  0  0  0  0  0  0  0  0  0  0  0
   -1.3484   -1.3012   -0.5559 N   0  0  0  0  0  0  0  0  0  0  0  0
   -2.7392   -1.4235   -0.6150 C   0  0  0  0  0  0  0  0  0  0  0  0
   -3.3713   -1.3860   -1.8648 C   0  0  0  0  0  0  0  0  0  0  0  0
   -4.7552   -1.5347   -1.9685 C   0  0  0  0  0  0  0  0  0  0  0  0
   -5.5118   -1.7370   -0.8184 C   0  0  0  0  0  0  0  0  0  0  0  0
   -7.2185   -1.9162   -0.9396 Cl  0  0  0  0  0  0  0  0  0  0  0  0
   -4.8956   -1.8011    0.4314 C   0  0  0  0  0  0  0  0  0  0  0  0
   -3.5024   -1.6611    0.5434 C   0  0  0  0  0  0  0  0  0  0  0  0
   -2.8502   -1.7410    1.8949 C   0  0  0  0  0  0  0  0  0  0  0  0
   -1.3603    1.1637   -0.3083 C   0  0  0  0  0  0  0  0  0  0  0  0
   -2.6565    1.7112   -0.2949 C   0  0  0  0  0  0  0  0  0  0  0  0
   -2.6580    3.0461   -0.1618 N   0  0  0  0  0  0  0  0  0  0  0  0
   -1.3470    3.3635   -0.0799 N   0  0  0  0  0  0  0  0  0  0  0  0
   -0.9651    4.7453    0.0681 C   0  0  0  0  0  0  0  0  0  0  0  0
   -0.5464    2.2672   -0.1692 C   0  0  0  0  0  0  0  0  0  0  0  0
    1.4095    3.0162   -0.0389 H   0  0  0  0  0  0  0  0  0  0  0  0
    3.2260   -0.7445   -1.2570 H   0  0  0  0  0  0  0  0  0  0  0  0
    3.1723   -0.9162    0.5183 H   0  0  0  0  0  0  0  0  0  0  0  0
    5.2251    0.7668   -1.0062 H   0  0  0  0  0  0  0  0  0  0  0  0
    5.2139    0.4829    0.7262 H   0  0  0  0  0  0  0  0  0  0  0  0
    6.8783   -0.9103   -0.5027 H   0  0  0  0  0  0  0  0  0  0  0  0
    5.5900   -1.6692   -1.4315 H   0  0  0  0  0  0  0  0  0  0  0  0
    4.6678   -2.6943    0.6392 H   0  0  0  0  0  0  0  0  0  0  0  0
    6.3821   -3.0837    0.4709 H   0  0  0  0  0  0  0  0  0  0  0  0
    5.8736   -1.8344    1.6193 H   0  0  0  0  0  0  0  0  0  0  0  0
    1.0583   -0.9812   -0.4499 H   0  0  0  0  0  0  0  0  0  0  0  0
   -2.7769   -1.2385   -2.7631 H   0  0  0  0  0  0  0  0  0  0  0  0
   -5.2310   -1.4952   -2.9444 H   0  0  0  0  0  0  0  0  0  0  0  0
   -5.5002   -1.9679    1.3199 H   0  0  0  0  0  0  0  0  0  0  0  0
   -2.4892   -0.7538    2.1995 H   0  0  0  0  0  0  0  0  0  0  0  0
   -3.5530   -2.0937    2.6572 H   0  0  0  0  0  0  0  0  0  0  0  0
   -2.0121   -2.4453    1.8770 H   0  0  0  0  0  0  0  0  0  0  0  0
   -3.6129    1.2138   -0.3763 H   0  0  0  0  0  0  0  0  0  0  0  0
    0.0271    4.8058    0.5207 H   0  0  0  0  0  0  0  0  0  0  0  0
   -1.6895    5.2458    0.7161 H   0  0  0  0  0  0  0  0  0  0  0  0
   -0.9597    5.2044   -0.9233 H   0  0  0  0  0  0  0  0  0  0  0  0
  1  2  1  0
  2  3  2  3
  3  4  1  0
  4  5  1  0
  5  6  1  0
  6  7  1  0
  2  8  1  0
  8  9  1  0
  9 10  2  3
 10 11  1  0
 11 12  2  0
 12 13  1  0
 13 14  2  0
 14 15  1  0
 14 16  1  0
 16 17  2  0
 17 18  1  0
  9 19  1  0
 19 20  1  0
 20 21  2  0
 21 22  1  0
 22 23  1  0
 22 24  1  0
 24  1  1  0
 17 11  1  0
 24 19  2  0
  1 25  1  0
  4 26  1  0
  4 27  1  0
  5 28  1  0
  5 29  1  0
  6 30  1  0
  6 31  1  0
  7 32  1  0
  7 33  1  0
  7 34  1  0
  8 35  1  0
 12 36  1  0
 13 37  1  0
 16 38  1  0
 18 39  1  0
 18 40  1  0
 18 41  1  0
 20 42  1  0
 23 43  1  0
 23 44  1  0
 23 45  1  0
M  END
>  <ScrubInfo>  (9) 
{"isomerGroup": 0, "isomerId": 8, "confId": 0, "nr_conformers:": 1, "nr_isomers:": 9}

$$$$
