REMARK SMILES CCCCNc1nc(Nc2ccc(Cl)cc2C)c2cnn(C)c2n1
REMARK SMILES IDX 5 1 4 3 3 4 2 5 1 6 6 7 7 8 24 9 8 10 23 11 18 12 21 13
REMARK SMILES IDX 19 14 20 15 22 16 9 17 10 19 11 20 16 21 12 22 15 23 13 24
REMARK SMILES IDX 17 25 14 26
REMARK H PARENT 5 2 9 18
ROOT
ATOM      1  N   UNL     1       1.602  -0.525   0.301  1.00  0.00    -0.354 N 
ATOM      2  H   UNL     1       1.016  -1.225   0.746  1.00  0.00     0.163 HD
ENDROOT
BRANCH   1   3
ATOM      3  C   UNL     1       2.688  -1.047  -0.508  1.00  0.00     0.116 C 
BRANCH   3   4
ATOM      4  C   UNL     1       3.536  -2.022   0.314  1.00  0.00     0.021 C 
BRANCH   4   5
ATOM      5  C   UNL     1       4.221  -1.408   1.540  1.00  0.00    -0.002 C 
ATOM      6  C   UNL     1       5.210  -0.305   1.196  1.00  0.00     0.004 C 
ENDBRANCH   4   5
ENDBRANCH   3   4
ENDBRANCH   1   3
BRANCH   1   7
ATOM      7  C   UNL     1       0.718   0.301  -0.384  1.00  0.00     0.226 A 
ATOM      8  N   UNL     1      -0.570   0.149  -0.030  1.00  0.00    -0.195 NA
ATOM      9  N   UNL     1       1.179   1.157  -1.305  1.00  0.00    -0.193 NA
ATOM     10  C   UNL     1      -1.544   0.903  -0.606  1.00  0.00     0.147 A 
ATOM     11  C   UNL     1       0.208   1.896  -1.859  1.00  0.00     0.165 A 
ATOM     12  C   UNL     1      -1.141   1.830  -1.572  1.00  0.00     0.082 A 
ATOM     13  N   UNL     1       0.343   2.865  -2.816  1.00  0.00    -0.250 N 
ATOM     14  C   UNL     1      -1.728   2.789  -2.423  1.00  0.00     0.149 A 
ATOM     15  N   UNL     1      -0.832   3.430  -3.182  1.00  0.00    -0.179 NA
ATOM     16  C   UNL     1       1.568   3.309  -3.432  1.00  0.00     0.176 C 
BRANCH  10  17
ATOM     17  N   UNL     1      -2.895   0.765  -0.229  1.00  0.00    -0.339 N 
ATOM     18  H   UNL     1      -3.394   1.639  -0.337  1.00  0.00     0.168 HD
BRANCH  17  19
ATOM     19  C   UNL     1      -3.383  -0.023   0.836  1.00  0.00     0.043 A 
ATOM     20  C   UNL     1      -3.958   0.633   1.940  1.00  0.00     0.028 A 
ATOM     21  C   UNL     1      -3.258  -1.427   0.867  1.00  0.00    -0.026 A 
ATOM     22  C   UNL     1      -4.399  -0.081   3.056  1.00  0.00     0.022 A 
ATOM     23  C   UNL     1      -3.691  -2.134   2.004  1.00  0.00     0.026 A 
ATOM     24  C   UNL     1      -4.259  -1.463   3.084  1.00  0.00     0.041 A 
ATOM     25  C   UNL     1      -2.668  -2.213  -0.272  1.00  0.00     0.046 C 
ATOM     26  Cl  UNL     1      -4.791  -2.348   4.460  1.00  0.00    -0.084 Cl
ENDBRANCH  17  19
ENDBRANCH  10  17
ENDBRANCH   1   7
TORSDOF 6
