REMARK SMILES OCCCNc1nc(Nc2ccc(O)cc2)nc2ccccc12
REMARK SMILES IDX 5 1 4 3 3 4 2 5 1 6 6 8 7 9 23 10 8 11 22 12 18 13 17 14
REMARK SMILES IDX 21 15 19 16 20 17 9 18 10 20 11 21 16 22 12 23 15 24 13 25
REMARK SMILES IDX 14 26
REMARK H PARENT 5 2 1 7 9 19 14 27
ROOT
ATOM      1  N   UNL     1      -2.635  -0.331  -0.806  1.00  0.00    -0.369 N 
ATOM      2  H   UNL     1      -3.363   0.150  -0.267  1.00  0.00     0.162 HD
ENDROOT
BRANCH   1   3
ATOM      3  C   UNL     1      -2.763  -1.773  -0.622  1.00  0.00     0.117 C 
BRANCH   3   4
ATOM      4  C   UNL     1      -4.229  -2.183  -0.786  1.00  0.00     0.049 C 
BRANCH   4   5
ATOM      5  C   UNL     1      -5.097  -1.756   0.395  1.00  0.00     0.158 C 
BRANCH   5   6
ATOM      6  O   UNL     1      -5.092  -0.338   0.538  1.00  0.00    -0.396 OA
ATOM      7  H   UNL     1      -5.715  -0.128   1.258  1.00  0.00     0.210 HD
ENDBRANCH   5   6
ENDBRANCH   4   5
ENDBRANCH   3   4
ENDBRANCH   1   3
BRANCH   1   8
ATOM      8  C   UNL     1      -1.375   0.218  -0.492  1.00  0.00     0.139 A 
ATOM      9  N   UNL     1      -0.362  -0.613  -0.190  1.00  0.00    -0.195 NA
ATOM     10  C   UNL     1      -1.198   1.610  -0.552  1.00  0.00     0.043 A 
ATOM     11  C   UNL     1       0.834  -0.082   0.099  1.00  0.00     0.229 A 
ATOM     12  C   UNL     1      -2.199   2.551  -0.910  1.00  0.00     0.014 A 
ATOM     13  C   UNL     1       0.083   2.059  -0.228  1.00  0.00     0.078 A 
ATOM     14  N   UNL     1       1.078   1.231   0.099  1.00  0.00    -0.213 NA
ATOM     15  C   UNL     1      -1.924   3.916  -0.929  1.00  0.00     0.001 A 
ATOM     16  C   UNL     1       0.335   3.426  -0.251  1.00  0.00     0.029 A 
ATOM     17  C   UNL     1      -0.651   4.356  -0.595  1.00  0.00     0.002 A 
BRANCH  11  18
ATOM     18  N   UNL     1       1.821  -1.015   0.407  1.00  0.00    -0.324 N 
ATOM     19  H   UNL     1       1.426  -1.939   0.317  1.00  0.00     0.170 HD
BRANCH  18  20
ATOM     20  C   UNL     1       3.176  -0.929   0.743  1.00  0.00     0.041 A 
ATOM     21  C   UNL     1       3.885  -2.120   0.976  1.00  0.00     0.030 A 
ATOM     22  C   UNL     1       3.873   0.277   0.873  1.00  0.00     0.030 A 
ATOM     23  C   UNL     1       5.241  -2.111   1.322  1.00  0.00     0.048 A 
ATOM     24  C   UNL     1       5.230   0.295   1.219  1.00  0.00     0.048 A 
ATOM     25  C   UNL     1       5.903  -0.896   1.440  1.00  0.00     0.115 A 
BRANCH  25  26
ATOM     26  O   UNL     1       7.222  -0.833   1.774  1.00  0.00    -0.508 OA
ATOM     27  H   UNL     1       7.556  -1.737   1.891  1.00  0.00     0.293 HD
ENDBRANCH  25  26
ENDBRANCH  18  20
ENDBRANCH  11  18
ENDBRANCH   1   8
TORSDOF 8
