_i0
     RDKit          3D

 41 43  0  0  0  0  0  0  0  0999 V2000
   -5.0923   -0.3384    0.5384 O   0  0  0  0  0  0  0  0  0  0  0  0
   -5.0970   -1.7557    0.3950 C   0  0  0  0  0  0  0  0  0  0  0  0
   -4.2295   -2.1835   -0.7864 C   0  0  0  0  0  0  0  0  0  0  0  0
   -2.7629   -1.7730   -0.6219 C   0  0  0  0  0  0  0  0  0  0  0  0
   -2.6348   -0.3314   -0.8057 N   0  0  0  0  0  0  0  0  0  0  0  0
   -1.3749    0.2185   -0.4920 C   0  0  0  0  0  0  0  0  0  0  0  0
   -0.3618   -0.6134   -0.1895 N   0  0  0  0  0  0  0  0  0  0  0  0
    0.8339   -0.0822    0.0985 C   0  0  0  0  0  0  0  0  0  0  0  0
    1.8211   -1.0154    0.4070 N   0  0  0  0  0  0  0  0  0  0  0  0
    3.1756   -0.9287    0.7427 C   0  0  0  0  0  0  0  0  0  0  0  0
    3.8853   -2.1204    0.9763 C   0  0  0  0  0  0  0  0  0  0  0  0
    5.2412   -2.1105    1.3220 C   0  0  0  0  0  0  0  0  0  0  0  0
    5.9030   -0.8965    1.4401 C   0  0  0  0  0  0  0  0  0  0  0  0
    7.2224   -0.8329    1.7743 O   0  0  0  0  0  0  0  0  0  0  0  0
    5.2297    0.2955    1.2191 C   0  0  0  0  0  0  0  0  0  0  0  0
    3.8735    0.2765    0.8734 C   0  0  0  0  0  0  0  0  0  0  0  0
    1.0779    1.2313    0.0990 N   0  0  0  0  0  0  0  0  0  0  0  0
    0.0833    2.0590   -0.2281 C   0  0  0  0  0  0  0  0  0  0  0  0
    0.3349    3.4263   -0.2509 C   0  0  0  0  0  0  0  0  0  0  0  0
   -0.6509    4.3557   -0.5945 C   0  0  0  0  0  0  0  0  0  0  0  0
   -1.9237    3.9157   -0.9291 C   0  0  0  0  0  0  0  0  0  0  0  0
   -2.1992    2.5506   -0.9103 C   0  0  0  0  0  0  0  0  0  0  0  0
   -1.1985    1.6096   -0.5518 C   0  0  0  0  0  0  0  0  0  0  0  0
   -5.7147   -0.1281    1.2579 H   0  0  0  0  0  0  0  0  0  0  0  0
   -4.7314   -2.1995    1.3266 H   0  0  0  0  0  0  0  0  0  0  0  0
   -6.1297   -2.0816    0.2347 H   0  0  0  0  0  0  0  0  0  0  0  0
   -4.2857   -3.2738   -0.8836 H   0  0  0  0  0  0  0  0  0  0  0  0
   -4.6285   -1.7455   -1.7096 H   0  0  0  0  0  0  0  0  0  0  0  0
   -2.4111   -2.0854    0.3695 H   0  0  0  0  0  0  0  0  0  0  0  0
   -2.1641   -2.2911   -1.3805 H   0  0  0  0  0  0  0  0  0  0  0  0
   -3.3631    0.1497   -0.2674 H   0  0  0  0  0  0  0  0  0  0  0  0
    1.4262   -1.9392    0.3174 H   0  0  0  0  0  0  0  0  0  0  0  0
    3.3807   -3.0797    0.8888 H   0  0  0  0  0  0  0  0  0  0  0  0
    5.7528   -3.0518    1.4925 H   0  0  0  0  0  0  0  0  0  0  0  0
    7.5558   -1.7372    1.8910 H   0  0  0  0  0  0  0  0  0  0  0  0
    5.7520    1.2430    1.3137 H   0  0  0  0  0  0  0  0  0  0  0  0
    3.3802    1.2293    0.7096 H   0  0  0  0  0  0  0  0  0  0  0  0
    1.3323    3.7794    0.0028 H   0  0  0  0  0  0  0  0  0  0  0  0
   -0.4162    5.4169   -0.6049 H   0  0  0  0  0  0  0  0  0  0  0  0
   -2.6968    4.6269   -1.2075 H   0  0  0  0  0  0  0  0  0  0  0  0
   -3.1950    2.2112   -1.1877 H   0  0  0  0  0  0  0  0  0  0  0  0
  1  2  1  0
  2  3  1  0
  3  4  1  0
  4  5  1  0
  5  6  1  0
  6  7  2  0
  7  8  1  0
  8  9  1  0
  9 10  1  0
 10 11  2  0
 11 12  1  0
 12 13  2  0
 13 14  1  0
 13 15  1  0
 15 16  2  0
  8 17  2  0
 17 18  1  0
 18 19  2  0
 19 20  1  0
 20 21  2  0
 21 22  1  0
 22 23  2  0
 23  6  1  0
 16 10  1  0
 23 18  1  0
  1 24  1  0
  2 25  1  0
  2 26  1  0
  3 27  1  0
  3 28  1  0
  4 29  1  0
  4 30  1  0
  5 31  1  0
  9 32  1  0
 11 33  1  0
 12 34  1  0
 14 35  1  0
 15 36  1  0
 16 37  1  0
 19 38  1  0
 20 39  1  0
 21 40  1  0
 22 41  1  0
M  END
>  <ScrubInfo>  (1) 
{"isomerGroup": 0, "isomerId": 0, "confId": 0, "nr_conformers:": 1, "nr_isomers:": 6}

$$$$
_i1
     RDKit          3D

 41 43  0  0  0  0  0  0  0  0999 V2000
    0.5381   -0.2289   -0.3323 N   0  0  0  0  0  0  0  0  0  0  0  0
    1.4373   -1.1973   -0.6502 C   0  0  0  0  0  0  0  0  0  0  0  0
    2.7085   -0.7999   -0.9507 N   0  0  0  0  0  0  0  0  0  0  0  0
    3.5032    0.1455   -0.2675 C   0  0  0  0  0  0  0  0  0  0  0  0
    3.1734    0.6770    0.9856 C   0  0  0  0  0  0  0  0  0  0  0  0
    3.9924    1.6318    1.5958 C   0  0  0  0  0  0  0  0  0  0  0  0
    5.1452    2.0646    0.9549 C   0  0  0  0  0  0  0  0  0  0  0  0
    5.9123    2.9969    1.5862 O   0  0  0  0  0  0  0  0  0  0  0  0
    5.4965    1.5561   -0.2887 C   0  0  0  0  0  0  0  0  0  0  0  0
    4.6752    0.6002   -0.8943 C   0  0  0  0  0  0  0  0  0  0  0  0
    1.1023   -2.4519   -0.7526 N   0  0  0  0  0  0  0  0  0  0  0  0
   -0.2370   -2.7847   -0.4324 C   0  0  0  0  0  0  0  0  0  0  0  0
   -0.5577   -4.1479   -0.4328 C   0  0  0  0  0  0  0  0  0  0  0  0
   -1.8343   -4.5835   -0.0844 C   0  0  0  0  0  0  0  0  0  0  0  0
   -2.8027   -3.6550    0.2820 C   0  0  0  0  0  0  0  0  0  0  0  0
   -2.5045   -2.2883    0.2853 C   0  0  0  0  0  0  0  0  0  0  0  0
   -1.2356   -1.8364   -0.0926 C   0  0  0  0  0  0  0  0  0  0  0  0
   -0.8056   -0.3986   -0.1338 C   0  0  0  0  0  0  0  0  0  0  0  0
   -1.4952    0.6889   -0.0393 N   0  0  0  0  0  0  0  0  0  0  0  0
   -2.9334    0.7867    0.0771 C   0  0  0  0  0  0  0  0  0  0  0  0
   -3.3294    2.2466   -0.1366 C   0  0  0  0  0  0  0  0  0  0  0  0
   -4.8341    2.4365   -0.0231 C   0  0  0  0  0  0  0  0  0  0  0  0
   -5.1501    3.8066   -0.2308 O   0  0  0  0  0  0  0  0  0  0  0  0
    0.8257    0.7316   -0.4553 H   0  0  0  0  0  0  0  0  0  0  0  0
    3.2692   -1.5793   -1.2822 H   0  0  0  0  0  0  0  0  0  0  0  0
    2.2928    0.3400    1.5263 H   0  0  0  0  0  0  0  0  0  0  0  0
    3.7303    2.0316    2.5715 H   0  0  0  0  0  0  0  0  0  0  0  0
    6.6725    3.2107    1.0210 H   0  0  0  0  0  0  0  0  0  0  0  0
    6.3932    1.8884   -0.8018 H   0  0  0  0  0  0  0  0  0  0  0  0
    4.9501    0.2178   -1.8751 H   0  0  0  0  0  0  0  0  0  0  0  0
    0.2071   -4.8735   -0.6992 H   0  0  0  0  0  0  0  0  0  0  0  0
   -2.0650   -5.6457   -0.0855 H   0  0  0  0  0  0  0  0  0  0  0  0
   -3.7941   -3.9941    0.5742 H   0  0  0  0  0  0  0  0  0  0  0  0
   -3.2847   -1.6154    0.6094 H   0  0  0  0  0  0  0  0  0  0  0  0
   -3.4339    0.1763   -0.6821 H   0  0  0  0  0  0  0  0  0  0  0  0
   -3.2551    0.4811    1.0782 H   0  0  0  0  0  0  0  0  0  0  0  0
   -2.8207    2.8902    0.5927 H   0  0  0  0  0  0  0  0  0  0  0  0
   -2.9872    2.5937   -1.1201 H   0  0  0  0  0  0  0  0  0  0  0  0
   -5.3602    1.8417   -0.7767 H   0  0  0  0  0  0  0  0  0  0  0  0
   -5.1900    2.1456    0.9705 H   0  0  0  0  0  0  0  0  0  0  0  0
   -6.1149    3.8945   -0.1508 H   0  0  0  0  0  0  0  0  0  0  0  0
  1  2  1  0
  2  3  1  0
  3  4  1  0
  4  5  2  0
  5  6  1  0
  6  7  2  0
  7  8  1  0
  7  9  1  0
  9 10  2  0
  2 11  2  0
 11 12  1  0
 12 13  2  0
 13 14  1  0
 14 15  2  0
 15 16  1  0
 16 17  2  0
 17 18  1  0
 18 19  2  3
 19 20  1  0
 20 21  1  0
 21 22  1  0
 22 23  1  0
 18  1  1  0
 10  4  1  0
 17 12  1  0
  1 24  1  0
  3 25  1  0
  5 26  1  0
  6 27  1  0
  8 28  1  0
  9 29  1  0
 10 30  1  0
 13 31  1  0
 14 32  1  0
 15 33  1  0
 16 34  1  0
 20 35  1  0
 20 36  1  0
 21 37  1  0
 21 38  1  0
 22 39  1  0
 22 40  1  0
 23 41  1  0
M  END
>  <ScrubInfo>  (2) 
{"isomerGroup": 0, "isomerId": 1, "confId": 0, "nr_conformers:": 1, "nr_isomers:": 6}

$$$$
_i2
     RDKit          3D

 41 43  0  0  0  0  0  0  0  0999 V2000
    0.6813    0.4081   -0.7573 N   0  0  0  0  0  0  0  0  0  0  0  0
    1.5843   -0.4903   -0.2437 C   0  0  0  0  0  0  0  0  0  0  0  0
    2.9468   -0.2659   -0.3968 N   0  0  0  0  0  0  0  0  0  0  0  0
    3.6022    0.9961   -0.7050 C   0  0  0  0  0  0  0  0  0  0  0  0
    3.5258    1.9854    0.4589 C   0  0  0  0  0  0  0  0  0  0  0  0
    4.2425    1.5017    1.7129 C   0  0  0  0  0  0  0  0  0  0  0  0
    5.6252    1.2970    1.4541 O   0  0  0  0  0  0  0  0  0  0  0  0
    1.0845   -1.5787    0.3968 C   0  0  0  0  0  0  0  0  0  0  0  0
    1.8409   -2.6641    0.9989 C   0  0  0  0  0  0  0  0  0  0  0  0
    1.2239   -3.6726    1.6308 C   0  0  0  0  0  0  0  0  0  0  0  0
   -0.2125   -3.7253    1.7409 C   0  0  0  0  0  0  0  0  0  0  0  0
   -1.0033   -2.7852    1.2081 C   0  0  0  0  0  0  0  0  0  0  0  0
   -0.4274   -1.6233    0.4725 C   0  0  0  0  0  0  0  0  0  0  0  0
   -1.2488   -0.7562   -0.0334 N   0  0  0  0  0  0  0  0  0  0  0  0
   -0.6743    0.2873   -0.7087 C   0  0  0  0  0  0  0  0  0  0  0  0
   -1.4030    1.1794   -1.3169 N   0  0  0  0  0  0  0  0  0  0  0  0
   -2.7992    1.0592   -1.2790 C   0  0  0  0  0  0  0  0  0  0  0  0
   -3.4764    0.3671   -2.2874 C   0  0  0  0  0  0  0  0  0  0  0  0
   -4.8697    0.2782   -2.2708 C   0  0  0  0  0  0  0  0  0  0  0  0
   -5.5841    0.8932   -1.2493 C   0  0  0  0  0  0  0  0  0  0  0  0
   -6.9433    0.7836   -1.2684 O   0  0  0  0  0  0  0  0  0  0  0  0
   -4.9292    1.5998   -0.2451 C   0  0  0  0  0  0  0  0  0  0  0  0
   -3.5347    1.6853   -0.2673 C   0  0  0  0  0  0  0  0  0  0  0  0
    1.0307    1.1400   -1.3511 H   0  0  0  0  0  0  0  0  0  0  0  0
    3.5434   -0.8955    0.1314 H   0  0  0  0  0  0  0  0  0  0  0  0
    3.1561    1.4431   -1.6007 H   0  0  0  0  0  0  0  0  0  0  0  0
    4.6487    0.7922   -0.9588 H   0  0  0  0  0  0  0  0  0  0  0  0
    3.9857    2.9251    0.1293 H   0  0  0  0  0  0  0  0  0  0  0  0
    2.4807    2.2041    0.7053 H   0  0  0  0  0  0  0  0  0  0  0  0
    3.8202    0.5602    2.0765 H   0  0  0  0  0  0  0  0  0  0  0  0
    4.1477    2.2386    2.5173 H   0  0  0  0  0  0  0  0  0  0  0  0
    6.0371    2.1738    1.3591 H   0  0  0  0  0  0  0  0  0  0  0  0
    2.9218   -2.6701    0.9304 H   0  0  0  0  0  0  0  0  0  0  0  0
    1.7963   -4.4830    2.0734 H   0  0  0  0  0  0  0  0  0  0  0  0
   -0.6471   -4.5674    2.2717 H   0  0  0  0  0  0  0  0  0  0  0  0
   -2.0835   -2.8270    1.2833 H   0  0  0  0  0  0  0  0  0  0  0  0
   -2.9115   -0.1071   -3.0841 H   0  0  0  0  0  0  0  0  0  0  0  0
   -5.3915   -0.2665   -3.0514 H   0  0  0  0  0  0  0  0  0  0  0  0
   -7.2992    1.2556   -0.4982 H   0  0  0  0  0  0  0  0  0  0  0  0
   -5.4767    2.0874    0.5541 H   0  0  0  0  0  0  0  0  0  0  0  0
   -3.0106    2.2367    0.5076 H   0  0  0  0  0  0  0  0  0  0  0  0
  1  2  1  0
  2  3  1  0
  3  4  1  0
  4  5  1  0
  5  6  1  0
  6  7  1  0
  2  8  2  0
  8  9  1  0
  9 10  2  0
 10 11  1  0
 11 12  2  0
 12 13  1  0
 13 14  2  0
 14 15  1  0
 15 16  2  3
 16 17  1  0
 17 18  2  0
 18 19  1  0
 19 20  2  0
 20 21  1  0
 20 22  1  0
 22 23  2  0
 15  1  1  0
 23 17  1  0
 13  8  1  0
  1 24  1  0
  3 25  1  0
  4 26  1  0
  4 27  1  0
  5 28  1  0
  5 29  1  0
  6 30  1  0
  6 31  1  0
  7 32  1  0
  9 33  1  0
 10 34  1  0
 11 35  1  0
 12 36  1  0
 18 37  1  0
 19 38  1  0
 21 39  1  0
 22 40  1  0
 23 41  1  0
M  END
>  <ScrubInfo>  (3) 
{"isomerGroup": 0, "isomerId": 2, "confId": 0, "nr_conformers:": 1, "nr_isomers:": 6}

$$$$
_i3
     RDKit          3D

 41 43  0  0  0  0  0  0  0  0999 V2000
   -0.9742   -0.7310   -0.3686 N   0  0  0  0  0  0  0  0  0  0  0  0
   -0.7137    0.5841   -0.0726 C   0  0  0  0  0  0  0  0  0  0  0  0
   -1.5317    1.4007    0.5204 N   0  0  0  0  0  0  0  0  0  0  0  0
   -2.7995    0.9517    0.9023 C   0  0  0  0  0  0  0  0  0  0  0  0
   -3.0047    0.4305    2.1834 C   0  0  0  0  0  0  0  0  0  0  0  0
   -4.2671   -0.0257    2.5699 C   0  0  0  0  0  0  0  0  0  0  0  0
   -5.3240    0.0518    1.6682 C   0  0  0  0  0  0  0  0  0  0  0  0
   -6.5726   -0.3830    1.9996 O   0  0  0  0  0  0  0  0  0  0  0  0
   -5.1400    0.5825    0.3964 C   0  0  0  0  0  0  0  0  0  0  0  0
   -3.8774    1.0405    0.0170 C   0  0  0  0  0  0  0  0  0  0  0  0
    0.4944    1.1612   -0.3844 N   0  0  0  0  0  0  0  0  0  0  0  0
    1.3701    0.4816   -1.0702 C   0  0  0  0  0  0  0  0  0  0  0  0
    2.5791    1.1051   -1.3126 N   0  0  0  0  0  0  0  0  0  0  0  0
    3.7840    0.6760   -0.5959 C   0  0  0  0  0  0  0  0  0  0  0  0
    3.6594    0.8241    0.9240 C   0  0  0  0  0  0  0  0  0  0  0  0
    3.5849    2.2718    1.3907 C   0  0  0  0  0  0  0  0  0  0  0  0
    4.7876    2.9557    1.0596 O   0  0  0  0  0  0  0  0  0  0  0  0
    1.0965   -0.8885   -1.5855 C   0  0  0  0  0  0  0  0  0  0  0  0
    1.9652   -1.5708   -2.4406 C   0  0  0  0  0  0  0  0  0  0  0  0
    1.6392   -2.8582   -2.8678 C   0  0  0  0  0  0  0  0  0  0  0  0
    0.4494   -3.4528   -2.4460 C   0  0  0  0  0  0  0  0  0  0  0  0
   -0.4283   -2.7552   -1.6118 C   0  0  0  0  0  0  0  0  0  0  0  0
   -0.1206   -1.4569   -1.1977 C   0  0  0  0  0  0  0  0  0  0  0  0
   -1.9157   -1.0638   -0.2370 H   0  0  0  0  0  0  0  0  0  0  0  0
   -2.1719    0.3869    2.8805 H   0  0  0  0  0  0  0  0  0  0  0  0
   -4.4031   -0.4279    3.5684 H   0  0  0  0  0  0  0  0  0  0  0  0
   -6.5706   -0.6516    2.9331 H   0  0  0  0  0  0  0  0  0  0  0  0
   -5.9766    0.6511   -0.2928 H   0  0  0  0  0  0  0  0  0  0  0  0
   -3.7291    1.4737   -0.9686 H   0  0  0  0  0  0  0  0  0  0  0  0
    2.4463    2.1029   -1.1428 H   0  0  0  0  0  0  0  0  0  0  0  0
    4.0010   -0.3712   -0.8311 H   0  0  0  0  0  0  0  0  0  0  0  0
    4.6340    1.2579   -0.9688 H   0  0  0  0  0  0  0  0  0  0  0  0
    4.5438    0.3576    1.3755 H   0  0  0  0  0  0  0  0  0  0  0  0
    2.7838    0.2777    1.2919 H   0  0  0  0  0  0  0  0  0  0  0  0
    2.7484    2.8050    0.9308 H   0  0  0  0  0  0  0  0  0  0  0  0
    3.4499    2.3188    2.4764 H   0  0  0  0  0  0  0  0  0  0  0  0
    5.4649    2.6785    1.7006 H   0  0  0  0  0  0  0  0  0  0  0  0
    2.8831   -1.1055   -2.7864 H   0  0  0  0  0  0  0  0  0  0  0  0
    2.3114   -3.3967   -3.5316 H   0  0  0  0  0  0  0  0  0  0  0  0
    0.1996   -4.4587   -2.7758 H   0  0  0  0  0  0  0  0  0  0  0  0
   -1.3549   -3.2299   -1.3000 H   0  0  0  0  0  0  0  0  0  0  0  0
  1  2  1  0
  2  3  2  3
  3  4  1  0
  4  5  2  0
  5  6  1  0
  6  7  2  0
  7  8  1  0
  7  9  1  0
  9 10  2  0
  2 11  1  0
 11 12  2  0
 12 13  1  0
 13 14  1  0
 14 15  1  0
 15 16  1  0
 16 17  1  0
 12 18  1  0
 18 19  2  0
 19 20  1  0
 20 21  2  0
 21 22  1  0
 22 23  2  0
 23  1  1  0
 10  4  1  0
 23 18  1  0
  1 24  1  0
  5 25  1  0
  6 26  1  0
  8 27  1  0
  9 28  1  0
 10 29  1  0
 13 30  1  0
 14 31  1  0
 14 32  1  0
 15 33  1  0
 15 34  1  0
 16 35  1  0
 16 36  1  0
 17 37  1  0
 19 38  1  0
 20 39  1  0
 21 40  1  0
 22 41  1  0
M  END
>  <ScrubInfo>  (4) 
{"isomerGroup": 0, "isomerId": 3, "confId": 0, "nr_conformers:": 1, "nr_isomers:": 6}

$$$$
_i4
     RDKit          3D

 41 43  0  0  0  0  0  0  0  0999 V2000
   -1.1161   -1.2223   -0.5025 N   0  0  0  0  0  0  0  0  0  0  0  0
   -0.5961    0.0409   -0.4988 C   0  0  0  0  0  0  0  0  0  0  0  0
   -1.4884    1.0484   -0.7465 N   0  0  0  0  0  0  0  0  0  0  0  0
   -2.7842    1.2057   -0.2078 C   0  0  0  0  0  0  0  0  0  0  0  0
   -3.6374    2.1504   -0.8013 C   0  0  0  0  0  0  0  0  0  0  0  0
   -4.9420    2.3406   -0.3357 C   0  0  0  0  0  0  0  0  0  0  0  0
   -5.3999    1.5812    0.7331 C   0  0  0  0  0  0  0  0  0  0  0  0
   -6.6625    1.7287    1.2231 O   0  0  0  0  0  0  0  0  0  0  0  0
   -4.5755    0.6431    1.3393 C   0  0  0  0  0  0  0  0  0  0  0  0
   -3.2723    0.4558    0.8697 C   0  0  0  0  0  0  0  0  0  0  0  0
    0.6601    0.3397   -0.3472 N   0  0  0  0  0  0  0  0  0  0  0  0
    1.5606   -0.6851   -0.1411 C   0  0  0  0  0  0  0  0  0  0  0  0
    2.8020   -0.4306    0.1085 N   0  0  0  0  0  0  0  0  0  0  0  0
    3.1944    0.9775    0.1667 C   0  0  0  0  0  0  0  0  0  0  0  0
    4.6915    1.0425    0.4688 C   0  0  0  0  0  0  0  0  0  0  0  0
    5.1845    2.4707    0.6635 C   0  0  0  0  0  0  0  0  0  0  0  0
    5.1674    3.2027   -0.5550 O   0  0  0  0  0  0  0  0  0  0  0  0
    1.1059   -2.0999   -0.2182 C   0  0  0  0  0  0  0  0  0  0  0  0
    1.9938   -3.1721   -0.0846 C   0  0  0  0  0  0  0  0  0  0  0  0
    1.5107   -4.4781   -0.1604 C   0  0  0  0  0  0  0  0  0  0  0  0
    0.1484   -4.7067   -0.3607 C   0  0  0  0  0  0  0  0  0  0  0  0
   -0.7351   -3.6311   -0.4915 C   0  0  0  0  0  0  0  0  0  0  0  0
   -0.2567   -2.3196   -0.4406 C   0  0  0  0  0  0  0  0  0  0  0  0
   -2.0273   -1.3522   -0.9185 H   0  0  0  0  0  0  0  0  0  0  0  0
   -1.0157    1.9445   -0.8228 H   0  0  0  0  0  0  0  0  0  0  0  0
   -3.2903    2.7403   -1.6471 H   0  0  0  0  0  0  0  0  0  0  0  0
   -5.5771    3.0760   -0.8190 H   0  0  0  0  0  0  0  0  0  0  0  0
   -7.1138    2.4269    0.7208 H   0  0  0  0  0  0  0  0  0  0  0  0
   -4.9409    0.0624    2.1819 H   0  0  0  0  0  0  0  0  0  0  0  0
   -2.6407   -0.2639    1.3843 H   0  0  0  0  0  0  0  0  0  0  0  0
    2.9907    1.4704   -0.7910 H   0  0  0  0  0  0  0  0  0  0  0  0
    2.6425    1.4964    0.9599 H   0  0  0  0  0  0  0  0  0  0  0  0
    5.2428    0.5684   -0.3525 H   0  0  0  0  0  0  0  0  0  0  0  0
    4.9022    0.4659    1.3777 H   0  0  0  0  0  0  0  0  0  0  0  0
    4.5851    3.0071    1.4063 H   0  0  0  0  0  0  0  0  0  0  0  0
    6.2200    2.4557    1.0179 H   0  0  0  0  0  0  0  0  0  0  0  0
    4.2432    3.2810   -0.8444 H   0  0  0  0  0  0  0  0  0  0  0  0
    3.0532   -2.9906    0.0794 H   0  0  0  0  0  0  0  0  0  0  0  0
    2.1955   -5.3163   -0.0564 H   0  0  0  0  0  0  0  0  0  0  0  0
   -0.2275   -5.7262   -0.4080 H   0  0  0  0  0  0  0  0  0  0  0  0
   -1.7948   -3.8284   -0.6293 H   0  0  0  0  0  0  0  0  0  0  0  0
  1  2  1  0
  2  3  1  0
  3  4  1  0
  4  5  2  0
  5  6  1  0
  6  7  2  0
  7  8  1  0
  7  9  1  0
  9 10  2  0
  2 11  2  0
 11 12  1  0
 12 13  2  3
 13 14  1  0
 14 15  1  0
 15 16  1  0
 16 17  1  0
 12 18  1  0
 18 19  2  0
 19 20  1  0
 20 21  2  0
 21 22  1  0
 22 23  2  0
 23  1  1  0
 10  4  1  0
 23 18  1  0
  1 24  1  0
  3 25  1  0
  5 26  1  0
  6 27  1  0
  8 28  1  0
  9 29  1  0
 10 30  1  0
 14 31  1  0
 14 32  1  0
 15 33  1  0
 15 34  1  0
 16 35  1  0
 16 36  1  0
 17 37  1  0
 19 38  1  0
 20 39  1  0
 21 40  1  0
 22 41  1  0
M  END
>  <ScrubInfo>  (5) 
{"isomerGroup": 0, "isomerId": 4, "confId": 0, "nr_conformers:": 1, "nr_isomers:": 6}

$$$$
_i5
     RDKit          3D

 41 43  0  0  0  0  0  0  0  0999 V2000
   -1.2377   -0.4119   -0.3521 N   0  0  0  0  0  0  0  0  0  0  0  0
   -0.9798    0.8343    0.1582 C   0  0  0  0  0  0  0  0  0  0  0  0
   -1.8452    1.7026    0.5957 N   0  0  0  0  0  0  0  0  0  0  0  0
   -3.2051    1.3717    0.5741 C   0  0  0  0  0  0  0  0  0  0  0  0
   -3.7859    0.6898    1.6470 C   0  0  0  0  0  0  0  0  0  0  0  0
   -5.1405    0.3549    1.6181 C   0  0  0  0  0  0  0  0  0  0  0  0
   -5.9140    0.7171    0.5211 C   0  0  0  0  0  0  0  0  0  0  0  0
   -7.2324    0.3717    0.5329 O   0  0  0  0  0  0  0  0  0  0  0  0
   -5.3567    1.4123   -0.5477 C   0  0  0  0  0  0  0  0  0  0  0  0
   -3.9997    1.7419   -0.5151 C   0  0  0  0  0  0  0  0  0  0  0  0
    0.3458    1.1501    0.1680 N   0  0  0  0  0  0  0  0  0  0  0  0
    1.4308    0.4467   -0.2902 C   0  0  0  0  0  0  0  0  0  0  0  0
    2.5328    1.1179   -0.3335 N   0  0  0  0  0  0  0  0  0  0  0  0
    3.8114    0.7187   -0.8778 C   0  0  0  0  0  0  0  0  0  0  0  0
    4.7359    0.2181    0.2254 C   0  0  0  0  0  0  0  0  0  0  0  0
    5.0822    1.3077    1.2310 C   0  0  0  0  0  0  0  0  0  0  0  0
    6.0243    0.7869    2.1637 O   0  0  0  0  0  0  0  0  0  0  0  0
    1.1360   -0.9752   -0.6837 C   0  0  0  0  0  0  0  0  0  0  0  0
    2.0930   -1.9574   -0.9526 C   0  0  0  0  0  0  0  0  0  0  0  0
    1.7053   -3.2502   -1.3206 C   0  0  0  0  0  0  0  0  0  0  0  0
    0.3576   -3.5816   -1.4057 C   0  0  0  0  0  0  0  0  0  0  0  0
   -0.6092   -2.6275   -1.0976 C   0  0  0  0  0  0  0  0  0  0  0  0
   -0.2350   -1.3297   -0.7169 C   0  0  0  0  0  0  0  0  0  0  0  0
   -2.1956   -0.7301   -0.3666 H   0  0  0  0  0  0  0  0  0  0  0  0
   -3.1788    0.4225    2.5076 H   0  0  0  0  0  0  0  0  0  0  0  0
   -5.5907   -0.1766    2.4514 H   0  0  0  0  0  0  0  0  0  0  0  0
   -7.6590    0.7434   -0.2566 H   0  0  0  0  0  0  0  0  0  0  0  0
   -5.9542    1.7077   -1.4039 H   0  0  0  0  0  0  0  0  0  0  0  0
   -3.5533    2.2924   -1.3391 H   0  0  0  0  0  0  0  0  0  0  0  0
    0.5503    2.0958    0.4589 H   0  0  0  0  0  0  0  0  0  0  0  0
    3.7199    0.0015   -1.6965 H   0  0  0  0  0  0  0  0  0  0  0  0
    4.2657    1.6016   -1.3449 H   0  0  0  0  0  0  0  0  0  0  0  0
    5.6615   -0.1630   -0.2233 H   0  0  0  0  0  0  0  0  0  0  0  0
    4.2906   -0.6281    0.7613 H   0  0  0  0  0  0  0  0  0  0  0  0
    4.1954    1.6345    1.7829 H   0  0  0  0  0  0  0  0  0  0  0  0
    5.5333    2.1726    0.7344 H   0  0  0  0  0  0  0  0  0  0  0  0
    6.1832    1.4873    2.8194 H   0  0  0  0  0  0  0  0  0  0  0  0
    3.1531   -1.7717   -0.8612 H   0  0  0  0  0  0  0  0  0  0  0  0
    2.4631   -4.0017   -1.5320 H   0  0  0  0  0  0  0  0  0  0  0  0
    0.0603   -4.5876   -1.6917 H   0  0  0  0  0  0  0  0  0  0  0  0
   -1.6585   -2.9090   -1.1414 H   0  0  0  0  0  0  0  0  0  0  0  0
  1  2  1  0
  2  3  2  3
  3  4  1  0
  4  5  2  0
  5  6  1  0
  6  7  2  0
  7  8  1  0
  7  9  1  0
  9 10  2  0
  2 11  1  0
 11 12  1  0
 12 13  2  3
 13 14  1  0
 14 15  1  0
 15 16  1  0
 16 17  1  0
 12 18  1  0
 18 19  2  0
 19 20  1  0
 20 21  2  0
 21 22  1  0
 22 23  2  0
 23  1  1  0
 10  4  1  0
 23 18  1  0
  1 24  1  0
  5 25  1  0
  6 26  1  0
  8 27  1  0
  9 28  1  0
 10 29  1  0
 11 30  1  0
 14 31  1  0
 14 32  1  0
 15 33  1  0
 15 34  1  0
 16 35  1  0
 16 36  1  0
 17 37  1  0
 19 38  1  0
 20 39  1  0
 21 40  1  0
 22 41  1  0
M  END
>  <ScrubInfo>  (6) 
{"isomerGroup": 0, "isomerId": 5, "confId": 0, "nr_conformers:": 1, "nr_isomers:": 6}

$$$$
