_i0
     RDKit          3D

 48 50  0  0  0  0  0  0  0  0999 V2000
    2.4836    3.0747   -0.2327 C   0  0  0  0  0  0  0  0  0  0  0  0
    2.4332    2.6048   -1.6775 C   0  0  0  0  0  0  0  0  0  0  0  0
    1.8349    1.2063   -1.8498 C   0  0  0  0  0  0  0  0  0  0  0  0
    2.6429    0.1133   -1.1455 C   0  0  0  0  0  0  0  0  0  0  0  0
    2.2605   -1.2066   -1.6177 N   0  0  0  0  0  0  0  0  0  0  0  0
    1.2375   -1.8456   -0.9302 C   0  0  0  0  0  0  0  0  0  0  0  0
    0.2496   -1.1275   -0.3667 N   0  0  0  0  0  0  0  0  0  0  0  0
   -0.7836   -1.7408    0.2687 C   0  0  0  0  0  0  0  0  0  0  0  0
   -1.8513   -1.0038    0.8233 N   0  0  0  0  0  0  0  0  0  0  0  0
   -2.0616    0.3816    0.6449 C   0  0  0  0  0  0  0  0  0  0  0  0
   -3.0871    0.8037   -0.2157 C   0  0  0  0  0  0  0  0  0  0  0  0
   -3.3018    2.1597   -0.4720 C   0  0  0  0  0  0  0  0  0  0  0  0
   -2.4803    3.1247    0.1120 C   0  0  0  0  0  0  0  0  0  0  0  0
   -2.7163    4.5836   -0.1417 C   0  0  0  0  0  0  0  0  0  0  0  0
   -1.4613    2.7117    0.9784 C   0  0  0  0  0  0  0  0  0  0  0  0
   -1.2410    1.3493    1.2527 C   0  0  0  0  0  0  0  0  0  0  0  0
   -0.1208    0.9726    2.1826 C   0  0  0  0  0  0  0  0  0  0  0  0
   -0.7522   -3.1372    0.3302 C   0  0  0  0  0  0  0  0  0  0  0  0
   -1.5303   -4.1869    0.8601 C   0  0  0  0  0  0  0  0  0  0  0  0
   -1.0117   -5.3951    0.6132 N   0  0  0  0  0  0  0  0  0  0  0  0
    0.1189   -5.1102   -0.0757 N   0  0  0  0  0  0  0  0  0  0  0  0
    0.9652   -6.1862   -0.5261 C   0  0  0  0  0  0  0  0  0  0  0  0
    0.3192   -3.7702   -0.2664 C   0  0  0  0  0  0  0  0  0  0  0  0
    1.3394   -3.1815   -0.9059 N   0  0  0  0  0  0  0  0  0  0  0  0
    1.4902    3.0497    0.2225 H   0  0  0  0  0  0  0  0  0  0  0  0
    2.8504    4.1051   -0.1856 H   0  0  0  0  0  0  0  0  0  0  0  0
    3.1560    2.4558    0.3683 H   0  0  0  0  0  0  0  0  0  0  0  0
    3.4440    2.6295   -2.1012 H   0  0  0  0  0  0  0  0  0  0  0  0
    1.8310    3.3149   -2.2568 H   0  0  0  0  0  0  0  0  0  0  0  0
    1.7855    0.9872   -2.9242 H   0  0  0  0  0  0  0  0  0  0  0  0
    0.7999    1.2074   -1.4894 H   0  0  0  0  0  0  0  0  0  0  0  0
    2.5705    0.1918   -0.0543 H   0  0  0  0  0  0  0  0  0  0  0  0
    3.7028    0.2510   -1.3923 H   0  0  0  0  0  0  0  0  0  0  0  0
    3.0157   -1.8798   -1.6795 H   0  0  0  0  0  0  0  0  0  0  0  0
   -2.7137   -1.5314    0.7588 H   0  0  0  0  0  0  0  0  0  0  0  0
   -3.7200    0.0731   -0.7122 H   0  0  0  0  0  0  0  0  0  0  0  0
   -4.1056    2.4533   -1.1427 H   0  0  0  0  0  0  0  0  0  0  0  0
   -1.7740    5.1411   -0.1156 H   0  0  0  0  0  0  0  0  0  0  0  0
   -3.3909    4.9911    0.6175 H   0  0  0  0  0  0  0  0  0  0  0  0
   -3.1595    4.7428   -1.1303 H   0  0  0  0  0  0  0  0  0  0  0  0
   -0.8253    3.4601    1.4477 H   0  0  0  0  0  0  0  0  0  0  0  0
   -0.3812    0.0985    2.7877 H   0  0  0  0  0  0  0  0  0  0  0  0
    0.7902    0.7635    1.6158 H   0  0  0  0  0  0  0  0  0  0  0  0
    0.0927    1.7857    2.8853 H   0  0  0  0  0  0  0  0  0  0  0  0
   -2.4547   -4.1232    1.4191 H   0  0  0  0  0  0  0  0  0  0  0  0
    0.3825   -6.8247   -1.1950 H   0  0  0  0  0  0  0  0  0  0  0  0
    1.8308   -5.7852   -1.0580 H   0  0  0  0  0  0  0  0  0  0  0  0
    1.2973   -6.7514    0.3485 H   0  0  0  0  0  0  0  0  0  0  0  0
  1  2  1  0
  2  3  1  0
  3  4  1  0
  4  5  1  0
  5  6  1  0
  6  7  2  0
  7  8  1  0
  8  9  1  0
  9 10  1  0
 10 11  2  0
 11 12  1  0
 12 13  2  0
 13 14  1  0
 13 15  1  0
 15 16  2  0
 16 17  1  0
  8 18  2  0
 18 19  1  0
 19 20  2  0
 20 21  1  0
 21 22  1  0
 21 23  1  0
 23 24  2  0
 24  6  1  0
 16 10  1  0
 23 18  1  0
  1 25  1  0
  1 26  1  0
  1 27  1  0
  2 28  1  0
  2 29  1  0
  3 30  1  0
  3 31  1  0
  4 32  1  0
  4 33  1  0
  5 34  1  0
  9 35  1  0
 11 36  1  0
 12 37  1  0
 14 38  1  0
 14 39  1  0
 14 40  1  0
 15 41  1  0
 17 42  1  0
 17 43  1  0
 17 44  1  0
 19 45  1  0
 22 46  1  0
 22 47  1  0
 22 48  1  0
M  END
>  <ScrubInfo>  (1) 
{"isomerGroup": 0, "isomerId": 0, "confId": 0, "nr_conformers:": 1, "nr_isomers:": 9}

$$$$
_i1
     RDKit          3D

 48 50  0  0  0  0  0  0  0  0999 V2000
    0.8309   -0.6713   -0.4762 N   0  0  0  0  0  0  0  0  0  0  0  0
   -0.4533   -0.2401   -0.7376 C   0  0  0  0  0  0  0  0  0  0  0  0
   -1.5156   -1.1279   -0.7507 N   0  0  0  0  0  0  0  0  0  0  0  0
   -2.7672   -0.9328   -0.1098 C   0  0  0  0  0  0  0  0  0  0  0  0
   -2.9071   -0.0927    1.0052 C   0  0  0  0  0  0  0  0  0  0  0  0
   -4.1416    0.0621    1.6404 C   0  0  0  0  0  0  0  0  0  0  0  0
   -5.2656   -0.6233    1.1770 C   0  0  0  0  0  0  0  0  0  0  0  0
   -6.5846   -0.4848    1.8779 C   0  0  0  0  0  0  0  0  0  0  0  0
   -5.1286   -1.4903    0.0871 C   0  0  0  0  0  0  0  0  0  0  0  0
   -3.8922   -1.6521   -0.5621 C   0  0  0  0  0  0  0  0  0  0  0  0
   -3.7987   -2.5835   -1.7408 C   0  0  0  0  0  0  0  0  0  0  0  0
   -0.5631    1.0615   -1.0348 C   0  0  0  0  0  0  0  0  0  0  0  0
   -1.6128    1.9987   -1.4501 C   0  0  0  0  0  0  0  0  0  0  0  0
   -1.1652    3.2149   -1.6442 N   0  0  0  0  0  0  0  0  0  0  0  0
    0.2027    3.1668   -1.3255 N   0  0  0  0  0  0  0  0  0  0  0  0
    1.0528    4.2537   -1.7472 C   0  0  0  0  0  0  0  0  0  0  0  0
    0.6576    1.8964   -1.0095 C   0  0  0  0  0  0  0  0  0  0  0  0
    1.8507    1.4760   -0.7558 N   0  0  0  0  0  0  0  0  0  0  0  0
    1.9431    0.1311   -0.4745 C   0  0  0  0  0  0  0  0  0  0  0  0
    3.0854   -0.4079   -0.1996 N   0  0  0  0  0  0  0  0  0  0  0  0
    4.2521    0.4762   -0.2022 C   0  0  0  0  0  0  0  0  0  0  0  0
    5.4943   -0.3385    0.1626 C   0  0  0  0  0  0  0  0  0  0  0  0
    5.4683   -0.8286    1.6123 C   0  0  0  0  0  0  0  0  0  0  0  0
    6.7327   -1.5983    1.9607 C   0  0  0  0  0  0  0  0  0  0  0  0
    0.9922   -1.6381   -0.2437 H   0  0  0  0  0  0  0  0  0  0  0  0
   -1.2180   -2.0906   -0.6144 H   0  0  0  0  0  0  0  0  0  0  0  0
   -2.0519    0.4407    1.4128 H   0  0  0  0  0  0  0  0  0  0  0  0
   -4.2150    0.7184    2.5050 H   0  0  0  0  0  0  0  0  0  0  0  0
   -7.4149   -0.6068    1.1744 H   0  0  0  0  0  0  0  0  0  0  0  0
   -6.6719   -1.2411    2.6640 H   0  0  0  0  0  0  0  0  0  0  0  0
   -6.6853    0.5080    2.3291 H   0  0  0  0  0  0  0  0  0  0  0  0
   -5.9976   -2.0449   -0.2634 H   0  0  0  0  0  0  0  0  0  0  0  0
   -4.7737   -3.0141   -1.9925 H   0  0  0  0  0  0  0  0  0  0  0  0
   -3.1184   -3.4113   -1.5165 H   0  0  0  0  0  0  0  0  0  0  0  0
   -3.4403   -2.0447   -2.6239 H   0  0  0  0  0  0  0  0  0  0  0  0
   -2.6488    1.6678   -1.5968 H   0  0  0  0  0  0  0  0  0  0  0  0
    0.5288    5.2112   -1.6613 H   0  0  0  0  0  0  0  0  0  0  0  0
    1.9524    4.3092   -1.1260 H   0  0  0  0  0  0  0  0  0  0  0  0
    1.3569    4.1174   -2.7897 H   0  0  0  0  0  0  0  0  0  0  0  0
    4.1302    1.2965    0.5155 H   0  0  0  0  0  0  0  0  0  0  0  0
    4.4012    0.9017   -1.2020 H   0  0  0  0  0  0  0  0  0  0  0  0
    6.3808    0.2894    0.0111 H   0  0  0  0  0  0  0  0  0  0  0  0
    5.5865   -1.1965   -0.5149 H   0  0  0  0  0  0  0  0  0  0  0  0
    4.6007   -1.4771    1.7782 H   0  0  0  0  0  0  0  0  0  0  0  0
    5.3695    0.0259    2.2918 H   0  0  0  0  0  0  0  0  0  0  0  0
    6.8458   -2.4779    1.3188 H   0  0  0  0  0  0  0  0  0  0  0  0
    7.6206   -0.9692    1.8418 H   0  0  0  0  0  0  0  0  0  0  0  0
    6.6947   -1.9389    3.0002 H   0  0  0  0  0  0  0  0  0  0  0  0
  1  2  1  0
  2  3  1  0
  3  4  1  0
  4  5  2  0
  5  6  1  0
  6  7  2  0
  7  8  1  0
  7  9  1  0
  9 10  2  0
 10 11  1  0
  2 12  2  0
 12 13  1  0
 13 14  2  0
 14 15  1  0
 15 16  1  0
 15 17  1  0
 17 18  2  0
 18 19  1  0
 19 20  2  3
 20 21  1  0
 21 22  1  0
 22 23  1  0
 23 24  1  0
 19  1  1  0
 10  4  1  0
 17 12  1  0
  1 25  1  0
  3 26  1  0
  5 27  1  0
  6 28  1  0
  8 29  1  0
  8 30  1  0
  8 31  1  0
  9 32  1  0
 11 33  1  0
 11 34  1  0
 11 35  1  0
 13 36  1  0
 16 37  1  0
 16 38  1  0
 16 39  1  0
 21 40  1  0
 21 41  1  0
 22 42  1  0
 22 43  1  0
 23 44  1  0
 23 45  1  0
 24 46  1  0
 24 47  1  0
 24 48  1  0
M  END
>  <ScrubInfo>  (2) 
{"isomerGroup": 0, "isomerId": 1, "confId": 0, "nr_conformers:": 1, "nr_isomers:": 9}

$$$$
_i2
     RDKit          3D

 48 50  0  0  0  0  0  0  0  0999 V2000
    0.9866   -0.7362    1.0554 N   0  0  0  0  0  0  0  0  0  0  0  0
    1.9528    0.2376    0.9637 C   0  0  0  0  0  0  0  0  0  0  0  0
    3.2075   -0.2294    1.2515 N   0  0  0  0  0  0  0  0  0  0  0  0
    4.3940    0.5980    1.0913 C   0  0  0  0  0  0  0  0  0  0  0  0
    4.8149    0.7220   -0.3742 C   0  0  0  0  0  0  0  0  0  0  0  0
    5.2798   -0.6064   -0.9758 C   0  0  0  0  0  0  0  0  0  0  0  0
    5.7647   -0.4276   -2.4062 C   0  0  0  0  0  0  0  0  0  0  0  0
    1.6983    1.4806    0.6464 N   0  0  0  0  0  0  0  0  0  0  0  0
    0.3731    1.6811    0.4013 C   0  0  0  0  0  0  0  0  0  0  0  0
   -0.6664    0.7664    0.4700 C   0  0  0  0  0  0  0  0  0  0  0  0
   -1.8061    1.5079    0.1116 C   0  0  0  0  0  0  0  0  0  0  0  0
   -1.5264    2.7887   -0.1636 N   0  0  0  0  0  0  0  0  0  0  0  0
   -0.1896    2.8680    0.0254 N   0  0  0  0  0  0  0  0  0  0  0  0
    0.4789    4.1278   -0.1810 C   0  0  0  0  0  0  0  0  0  0  0  0
   -0.3679   -0.5982    0.8554 C   0  0  0  0  0  0  0  0  0  0  0  0
   -1.1805   -1.5976    1.0196 N   0  0  0  0  0  0  0  0  0  0  0  0
   -2.5605   -1.4664    0.8308 C   0  0  0  0  0  0  0  0  0  0  0  0
   -3.3641   -1.1015    1.9164 C   0  0  0  0  0  0  0  0  0  0  0  0
   -4.7465   -0.9758    1.7711 C   0  0  0  0  0  0  0  0  0  0  0  0
   -5.3490   -1.2183    0.5338 C   0  0  0  0  0  0  0  0  0  0  0  0
   -6.8373   -1.1106    0.3788 C   0  0  0  0  0  0  0  0  0  0  0  0
   -4.5517   -1.6251   -0.5443 C   0  0  0  0  0  0  0  0  0  0  0  0
   -3.1604   -1.7625   -0.4051 C   0  0  0  0  0  0  0  0  0  0  0  0
   -2.3310   -2.1942   -1.5811 C   0  0  0  0  0  0  0  0  0  0  0  0
    1.2496   -1.6313    1.4313 H   0  0  0  0  0  0  0  0  0  0  0  0
    3.3699   -1.2078    1.0526 H   0  0  0  0  0  0  0  0  0  0  0  0
    4.2186    1.5943    1.5138 H   0  0  0  0  0  0  0  0  0  0  0  0
    5.2089    0.1538    1.6741 H   0  0  0  0  0  0  0  0  0  0  0  0
    5.6362    1.4469   -0.4345 H   0  0  0  0  0  0  0  0  0  0  0  0
    3.9914    1.1268   -0.9743 H   0  0  0  0  0  0  0  0  0  0  0  0
    6.0922   -1.0253   -0.3709 H   0  0  0  0  0  0  0  0  0  0  0  0
    4.4606   -1.3338   -0.9702 H   0  0  0  0  0  0  0  0  0  0  0  0
    6.0912   -1.3875   -2.8184 H   0  0  0  0  0  0  0  0  0  0  0  0
    4.9659   -0.0374   -3.0451 H   0  0  0  0  0  0  0  0  0  0  0  0
    6.6104    0.2661   -2.4504 H   0  0  0  0  0  0  0  0  0  0  0  0
   -2.8357    1.1876    0.0320 H   0  0  0  0  0  0  0  0  0  0  0  0
    0.3356    4.4257   -1.2227 H   0  0  0  0  0  0  0  0  0  0  0  0
    0.0356    4.8665    0.4917 H   0  0  0  0  0  0  0  0  0  0  0  0
    1.5454    4.0286    0.0319 H   0  0  0  0  0  0  0  0  0  0  0  0
   -2.9056   -0.9106    2.8831 H   0  0  0  0  0  0  0  0  0  0  0  0
   -5.3471   -0.6872    2.6306 H   0  0  0  0  0  0  0  0  0  0  0  0
   -7.2480   -0.3586    1.0608 H   0  0  0  0  0  0  0  0  0  0  0  0
   -7.1024   -0.8047   -0.6387 H   0  0  0  0  0  0  0  0  0  0  0  0
   -7.3065   -2.0758    0.5925 H   0  0  0  0  0  0  0  0  0  0  0  0
   -5.0198   -1.8410   -1.5031 H   0  0  0  0  0  0  0  0  0  0  0  0
   -2.9596   -2.5457   -2.4062 H   0  0  0  0  0  0  0  0  0  0  0  0
   -1.7300   -1.3562   -1.9478 H   0  0  0  0  0  0  0  0  0  0  0  0
   -1.6700   -3.0217   -1.3033 H   0  0  0  0  0  0  0  0  0  0  0  0
  1  2  1  0
  2  3  1  0
  3  4  1  0
  4  5  1  0
  5  6  1  0
  6  7  1  0
  2  8  2  0
  8  9  1  0
  9 10  2  0
 10 11  1  0
 11 12  2  0
 12 13  1  0
 13 14  1  0
 10 15  1  0
 15 16  2  3
 16 17  1  0
 17 18  2  0
 18 19  1  0
 19 20  2  0
 20 21  1  0
 20 22  1  0
 22 23  2  0
 23 24  1  0
 15  1  1  0
 23 17  1  0
 13  9  1  0
  1 25  1  0
  3 26  1  0
  4 27  1  0
  4 28  1  0
  5 29  1  0
  5 30  1  0
  6 31  1  0
  6 32  1  0
  7 33  1  0
  7 34  1  0
  7 35  1  0
 11 36  1  0
 14 37  1  0
 14 38  1  0
 14 39  1  0
 18 40  1  0
 19 41  1  0
 21 42  1  0
 21 43  1  0
 21 44  1  0
 22 45  1  0
 24 46  1  0
 24 47  1  0
 24 48  1  0
M  END
>  <ScrubInfo>  (3) 
{"isomerGroup": 0, "isomerId": 2, "confId": 0, "nr_conformers:": 1, "nr_isomers:": 9}

$$$$
_i3
     RDKit          3D

 48 50  0  0  0  0  0  0  0  0999 V2000
    1.9191   -1.7843    0.6320 N   0  0  0  0  0  0  0  0  0  0  0  0
    1.5670   -0.4619    0.4240 C   0  0  0  0  0  0  0  0  0  0  0  0
    2.3663    0.5456    0.4298 N   0  0  0  0  0  0  0  0  0  0  0  0
    3.7866    0.3373    0.6651 C   0  0  0  0  0  0  0  0  0  0  0  0
    4.5106    1.6830    0.5978 C   0  0  0  0  0  0  0  0  0  0  0  0
    4.4207    2.3948   -0.7560 C   0  0  0  0  0  0  0  0  0  0  0  0
    5.0552    1.6151   -1.8971 C   0  0  0  0  0  0  0  0  0  0  0  0
    0.2524   -0.1043    0.1813 N   0  0  0  0  0  0  0  0  0  0  0  0
   -0.6933   -0.9955    0.1481 C   0  0  0  0  0  0  0  0  0  0  0  0
   -2.0360   -0.8063   -0.0816 N   0  0  0  0  0  0  0  0  0  0  0  0
   -2.7574    0.3956   -0.2640 C   0  0  0  0  0  0  0  0  0  0  0  0
   -2.1663    1.6605   -0.1391 C   0  0  0  0  0  0  0  0  0  0  0  0
   -2.8947    2.8384   -0.3403 C   0  0  0  0  0  0  0  0  0  0  0  0
   -4.2465    2.7876   -0.6717 C   0  0  0  0  0  0  0  0  0  0  0  0
   -5.0195    4.0478   -0.9202 C   0  0  0  0  0  0  0  0  0  0  0  0
   -4.8500    1.5378   -0.8283 C   0  0  0  0  0  0  0  0  0  0  0  0
   -4.1255    0.3449   -0.6313 C   0  0  0  0  0  0  0  0  0  0  0  0
   -4.8527   -0.9607   -0.8251 C   0  0  0  0  0  0  0  0  0  0  0  0
   -0.3558   -2.3926    0.3651 C   0  0  0  0  0  0  0  0  0  0  0  0
   -1.0209   -3.6298    0.4138 C   0  0  0  0  0  0  0  0  0  0  0  0
   -0.1881   -4.6522    0.6598 N   0  0  0  0  0  0  0  0  0  0  0  0
    1.0266   -4.0614    0.7700 N   0  0  0  0  0  0  0  0  0  0  0  0
    2.1814   -4.8797    1.0391 C   0  0  0  0  0  0  0  0  0  0  0  0
    0.9532   -2.7159    0.5987 C   0  0  0  0  0  0  0  0  0  0  0  0
    2.8917   -1.9821    0.8079 H   0  0  0  0  0  0  0  0  0  0  0  0
    3.9439   -0.0865    1.6644 H   0  0  0  0  0  0  0  0  0  0  0  0
    4.2133   -0.3560   -0.0679 H   0  0  0  0  0  0  0  0  0  0  0  0
    4.0965    2.3502    1.3643 H   0  0  0  0  0  0  0  0  0  0  0  0
    5.5662    1.5286    0.8525 H   0  0  0  0  0  0  0  0  0  0  0  0
    4.9298    3.3623   -0.6704 H   0  0  0  0  0  0  0  0  0  0  0  0
    3.3753    2.6135   -1.0019 H   0  0  0  0  0  0  0  0  0  0  0  0
    5.0553    2.2194   -2.8100 H   0  0  0  0  0  0  0  0  0  0  0  0
    6.0920    1.3519   -1.6652 H   0  0  0  0  0  0  0  0  0  0  0  0
    4.5025    0.6955   -2.1104 H   0  0  0  0  0  0  0  0  0  0  0  0
   -2.6248   -1.6227   -0.0644 H   0  0  0  0  0  0  0  0  0  0  0  0
   -1.1183    1.7703    0.1257 H   0  0  0  0  0  0  0  0  0  0  0  0
   -2.3863    3.7941   -0.2335 H   0  0  0  0  0  0  0  0  0  0  0  0
   -6.0726    3.9196   -0.6484 H   0  0  0  0  0  0  0  0  0  0  0  0
   -4.6272    4.8730   -0.3165 H   0  0  0  0  0  0  0  0  0  0  0  0
   -4.9575    4.3228   -1.9776 H   0  0  0  0  0  0  0  0  0  0  0  0
   -5.9001    1.4906   -1.1120 H   0  0  0  0  0  0  0  0  0  0  0  0
   -4.8903   -1.5163    0.1175 H   0  0  0  0  0  0  0  0  0  0  0  0
   -5.8849   -0.8054   -1.1571 H   0  0  0  0  0  0  0  0  0  0  0  0
   -4.3533   -1.5647   -1.5896 H   0  0  0  0  0  0  0  0  0  0  0  0
   -2.0721   -3.8491    0.2837 H   0  0  0  0  0  0  0  0  0  0  0  0
    2.0296   -5.3851    1.9962 H   0  0  0  0  0  0  0  0  0  0  0  0
    2.2815   -5.6103    0.2324 H   0  0  0  0  0  0  0  0  0  0  0  0
    3.0772   -4.2574    1.0872 H   0  0  0  0  0  0  0  0  0  0  0  0
  1  2  1  0
  2  3  2  3
  3  4  1  0
  4  5  1  0
  5  6  1  0
  6  7  1  0
  2  8  1  0
  8  9  2  0
  9 10  1  0
 10 11  1  0
 11 12  2  0
 12 13  1  0
 13 14  2  0
 14 15  1  0
 14 16  1  0
 16 17  2  0
 17 18  1  0
  9 19  1  0
 19 20  1  0
 20 21  2  0
 21 22  1  0
 22 23  1  0
 22 24  1  0
 24  1  1  0
 17 11  1  0
 24 19  2  0
  1 25  1  0
  4 26  1  0
  4 27  1  0
  5 28  1  0
  5 29  1  0
  6 30  1  0
  6 31  1  0
  7 32  1  0
  7 33  1  0
  7 34  1  0
 10 35  1  0
 12 36  1  0
 13 37  1  0
 15 38  1  0
 15 39  1  0
 15 40  1  0
 16 41  1  0
 18 42  1  0
 18 43  1  0
 18 44  1  0
 20 45  1  0
 23 46  1  0
 23 47  1  0
 23 48  1  0
M  END
>  <ScrubInfo>  (4) 
{"isomerGroup": 0, "isomerId": 3, "confId": 0, "nr_conformers:": 1, "nr_isomers:": 9}

$$$$
_i4
     RDKit          3D

 48 50  0  0  0  0  0  0  0  0999 V2000
   -1.7049   -3.0203    0.7050 N   0  0  0  0  0  0  0  0  0  0  0  0
   -1.8538   -1.6613    0.4479 C   0  0  0  0  0  0  0  0  0  0  0  0
   -0.7102   -1.0548    0.0947 C   0  0  0  0  0  0  0  0  0  0  0  0
   -0.2271    0.2731   -0.2621 C   0  0  0  0  0  0  0  0  0  0  0  0
   -0.8639    1.3848   -0.4276 N   0  0  0  0  0  0  0  0  0  0  0  0
   -2.2521    1.4419   -0.2627 C   0  0  0  0  0  0  0  0  0  0  0  0
   -2.7737    1.7625    0.9953 C   0  0  0  0  0  0  0  0  0  0  0  0
   -4.1525    1.8298    1.2014 C   0  0  0  0  0  0  0  0  0  0  0  0
   -5.0342    1.6006    0.1416 C   0  0  0  0  0  0  0  0  0  0  0  0
   -6.5173    1.6403    0.3641 C   0  0  0  0  0  0  0  0  0  0  0  0
   -4.5149    1.2926   -1.1230 C   0  0  0  0  0  0  0  0  0  0  0  0
   -3.1284    1.2326   -1.3415 C   0  0  0  0  0  0  0  0  0  0  0  0
   -2.5996    0.9226   -2.7136 C   0  0  0  0  0  0  0  0  0  0  0  0
    1.1275    0.3355   -0.4513 N   0  0  0  0  0  0  0  0  0  0  0  0
    1.9083   -0.6983   -0.3859 C   0  0  0  0  0  0  0  0  0  0  0  0
    3.2542   -0.5706   -0.5762 N   0  0  0  0  0  0  0  0  0  0  0  0
    3.8356    0.5758   -1.2420 C   0  0  0  0  0  0  0  0  0  0  0  0
    5.3630    0.5118   -1.1894 C   0  0  0  0  0  0  0  0  0  0  0  0
    5.9618    0.5420    0.2208 C   0  0  0  0  0  0  0  0  0  0  0  0
    5.6482    1.8169    0.9882 C   0  0  0  0  0  0  0  0  0  0  0  0
    1.5034   -1.9827   -0.1412 N   0  0  0  0  0  0  0  0  0  0  0  0
    0.2510   -2.1732    0.0873 C   0  0  0  0  0  0  0  0  0  0  0  0
   -0.4073   -3.3734    0.3630 N   0  0  0  0  0  0  0  0  0  0  0  0
    0.2532   -4.4282    1.1083 C   0  0  0  0  0  0  0  0  0  0  0  0
   -2.4502   -3.5911    0.2997 H   0  0  0  0  0  0  0  0  0  0  0  0
   -2.8385   -1.2275    0.5435 H   0  0  0  0  0  0  0  0  0  0  0  0
   -2.0936    1.9594    1.8203 H   0  0  0  0  0  0  0  0  0  0  0  0
   -4.5296    2.0708    2.1925 H   0  0  0  0  0  0  0  0  0  0  0  0
   -6.7739    2.3347    1.1710 H   0  0  0  0  0  0  0  0  0  0  0  0
   -6.8824    0.6427    0.6270 H   0  0  0  0  0  0  0  0  0  0  0  0
   -7.0380    1.9829   -0.5363 H   0  0  0  0  0  0  0  0  0  0  0  0
   -5.1972    1.1112   -1.9516 H   0  0  0  0  0  0  0  0  0  0  0  0
   -3.3912    0.9801   -3.4683 H   0  0  0  0  0  0  0  0  0  0  0  0
   -2.1816   -0.0886   -2.7382 H   0  0  0  0  0  0  0  0  0  0  0  0
   -1.8269    1.6429   -3.0016 H   0  0  0  0  0  0  0  0  0  0  0  0
    3.6939   -1.4636   -0.7582 H   0  0  0  0  0  0  0  0  0  0  0  0
    3.5185    0.5805   -2.2914 H   0  0  0  0  0  0  0  0  0  0  0  0
    3.4823    1.5096   -0.7917 H   0  0  0  0  0  0  0  0  0  0  0  0
    5.7694    1.3504   -1.7681 H   0  0  0  0  0  0  0  0  0  0  0  0
    5.7026   -0.4051   -1.6877 H   0  0  0  0  0  0  0  0  0  0  0  0
    7.0510    0.4471    0.1340 H   0  0  0  0  0  0  0  0  0  0  0  0
    5.6189   -0.3240    0.7983 H   0  0  0  0  0  0  0  0  0  0  0  0
    6.1895    1.8248    1.9398 H   0  0  0  0  0  0  0  0  0  0  0  0
    4.5810    1.8962    1.2150 H   0  0  0  0  0  0  0  0  0  0  0  0
    5.9496    2.7025    0.4199 H   0  0  0  0  0  0  0  0  0  0  0  0
    0.4724   -4.1041    2.1311 H   0  0  0  0  0  0  0  0  0  0  0  0
    1.1915   -4.7141    0.6222 H   0  0  0  0  0  0  0  0  0  0  0  0
   -0.3834   -5.3178    1.1542 H   0  0  0  0  0  0  0  0  0  0  0  0
  1  2  1  0
  2  3  2  0
  3  4  1  0
  4  5  2  3
  5  6  1  0
  6  7  2  0
  7  8  1  0
  8  9  2  0
  9 10  1  0
  9 11  1  0
 11 12  2  0
 12 13  1  0
  4 14  1  0
 14 15  2  0
 15 16  1  0
 16 17  1  0
 17 18  1  0
 18 19  1  0
 19 20  1  0
 15 21  1  0
 21 22  2  0
 22 23  1  0
 23 24  1  0
 23  1  1  0
 22  3  1  0
 12  6  1  0
  1 25  1  0
  2 26  1  0
  7 27  1  0
  8 28  1  0
 10 29  1  0
 10 30  1  0
 10 31  1  0
 11 32  1  0
 13 33  1  0
 13 34  1  0
 13 35  1  0
 16 36  1  0
 17 37  1  0
 17 38  1  0
 18 39  1  0
 18 40  1  0
 19 41  1  0
 19 42  1  0
 20 43  1  0
 20 44  1  0
 20 45  1  0
 24 46  1  0
 24 47  1  0
 24 48  1  0
M  END
>  <ScrubInfo>  (5) 
{"isomerGroup": 0, "isomerId": 4, "confId": 0, "nr_conformers:": 1, "nr_isomers:": 9}

$$$$
_i5
     RDKit          3D

 48 50  0  0  0  0  0  0  0  0999 V2000
    1.2043   -0.1067    1.4886 N   0  0  0  0  0  0  0  0  0  0  0  0
    1.4252    0.7959    0.4796 C   0  0  0  0  0  0  0  0  0  0  0  0
    2.6940    1.2977    0.4149 N   0  0  0  0  0  0  0  0  0  0  0  0
    3.8540    0.4195    0.3285 C   0  0  0  0  0  0  0  0  0  0  0  0
    5.1266    1.2612    0.2421 C   0  0  0  0  0  0  0  0  0  0  0  0
    6.3725    0.3801    0.1635 C   0  0  0  0  0  0  0  0  0  0  0  0
    7.6407    1.2143    0.0789 C   0  0  0  0  0  0  0  0  0  0  0  0
    0.5361    1.2058   -0.3787 N   0  0  0  0  0  0  0  0  0  0  0  0
   -0.7614    0.7082   -0.3231 C   0  0  0  0  0  0  0  0  0  0  0  0
   -1.5679    1.1312   -1.2440 N   0  0  0  0  0  0  0  0  0  0  0  0
   -2.9019    0.7230   -1.3170 C   0  0  0  0  0  0  0  0  0  0  0  0
   -3.8807    1.4852   -0.6698 C   0  0  0  0  0  0  0  0  0  0  0  0
   -5.2263    1.1189   -0.7286 C   0  0  0  0  0  0  0  0  0  0  0  0
   -5.6155   -0.0172   -1.4432 C   0  0  0  0  0  0  0  0  0  0  0  0
   -7.0635   -0.3983   -1.5346 C   0  0  0  0  0  0  0  0  0  0  0  0
   -4.6431   -0.7567   -2.1298 C   0  0  0  0  0  0  0  0  0  0  0  0
   -3.2877   -0.3896   -2.0841 C   0  0  0  0  0  0  0  0  0  0  0  0
   -2.2676   -1.1998   -2.8330 C   0  0  0  0  0  0  0  0  0  0  0  0
   -1.0547   -0.2220    0.7562 C   0  0  0  0  0  0  0  0  0  0  0  0
   -2.1647   -0.9344    1.2461 C   0  0  0  0  0  0  0  0  0  0  0  0
   -1.8746   -1.6713    2.3312 N   0  0  0  0  0  0  0  0  0  0  0  0
   -0.5619   -1.4276    2.5427 N   0  0  0  0  0  0  0  0  0  0  0  0
    0.0986   -2.0709    3.6494 C   0  0  0  0  0  0  0  0  0  0  0  0
   -0.0467   -0.5790    1.6167 C   0  0  0  0  0  0  0  0  0  0  0  0
    1.9093   -0.1671    2.2100 H   0  0  0  0  0  0  0  0  0  0  0  0
    2.7068    1.9825   -0.3409 H   0  0  0  0  0  0  0  0  0  0  0  0
    3.7650   -0.2194   -0.5578 H   0  0  0  0  0  0  0  0  0  0  0  0
    3.9063   -0.2299    1.2092 H   0  0  0  0  0  0  0  0  0  0  0  0
    5.0793    1.9133   -0.6391 H   0  0  0  0  0  0  0  0  0  0  0  0
    5.1923    1.9195    1.1176 H   0  0  0  0  0  0  0  0  0  0  0  0
    6.3123   -0.2727   -0.7150 H   0  0  0  0  0  0  0  0  0  0  0  0
    6.4269   -0.2676    1.0461 H   0  0  0  0  0  0  0  0  0  0  0  0
    8.5194    0.5640    0.0258 H   0  0  0  0  0  0  0  0  0  0  0  0
    7.6336    1.8493   -0.8126 H   0  0  0  0  0  0  0  0  0  0  0  0
    7.7468    1.8574    0.9583 H   0  0  0  0  0  0  0  0  0  0  0  0
   -3.5870    2.3733   -0.1163 H   0  0  0  0  0  0  0  0  0  0  0  0
   -5.9656    1.7293   -0.2155 H   0  0  0  0  0  0  0  0  0  0  0  0
   -7.1758   -1.4828   -1.6367 H   0  0  0  0  0  0  0  0  0  0  0  0
   -7.6038   -0.1003   -0.6299 H   0  0  0  0  0  0  0  0  0  0  0  0
   -7.5247    0.0890   -2.3989 H   0  0  0  0  0  0  0  0  0  0  0  0
   -4.9449   -1.6247   -2.7133 H   0  0  0  0  0  0  0  0  0  0  0  0
   -2.7454   -1.9072   -3.5190 H   0  0  0  0  0  0  0  0  0  0  0  0
   -1.6507   -1.7718   -2.1330 H   0  0  0  0  0  0  0  0  0  0  0  0
   -1.6256   -0.5494   -3.4360 H   0  0  0  0  0  0  0  0  0  0  0  0
   -3.1809   -0.9592    0.8768 H   0  0  0  0  0  0  0  0  0  0  0  0
    0.0075   -3.1528    3.5240 H   0  0  0  0  0  0  0  0  0  0  0  0
    1.1534   -1.7896    3.6701 H   0  0  0  0  0  0  0  0  0  0  0  0
   -0.3883   -1.7506    4.5740 H   0  0  0  0  0  0  0  0  0  0  0  0
  1  2  1  0
  2  3  1  0
  3  4  1  0
  4  5  1  0
  5  6  1  0
  6  7  1  0
  2  8  2  0
  8  9  1  0
  9 10  2  3
 10 11  1  0
 11 12  2  0
 12 13  1  0
 13 14  2  0
 14 15  1  0
 14 16  1  0
 16 17  2  0
 17 18  1  0
  9 19  1  0
 19 20  1  0
 20 21  2  0
 21 22  1  0
 22 23  1  0
 22 24  1  0
 24  1  1  0
 17 11  1  0
 24 19  2  0
  1 25  1  0
  3 26  1  0
  4 27  1  0
  4 28  1  0
  5 29  1  0
  5 30  1  0
  6 31  1  0
  6 32  1  0
  7 33  1  0
  7 34  1  0
  7 35  1  0
 12 36  1  0
 13 37  1  0
 15 38  1  0
 15 39  1  0
 15 40  1  0
 16 41  1  0
 18 42  1  0
 18 43  1  0
 18 44  1  0
 20 45  1  0
 23 46  1  0
 23 47  1  0
 23 48  1  0
M  END
>  <ScrubInfo>  (6) 
{"isomerGroup": 0, "isomerId": 5, "confId": 0, "nr_conformers:": 1, "nr_isomers:": 9}

$$$$
_i6
     RDKit          3D

 48 50  0  0  0  0  0  0  0  0999 V2000
   -0.9707   -3.0950    2.0603 N   0  0  0  0  0  0  0  0  0  0  0  0
   -1.4005   -2.2214    1.0647 C   0  0  0  0  0  0  0  0  0  0  0  0
   -0.3941   -1.5621    0.4735 C   0  0  0  0  0  0  0  0  0  0  0  0
   -0.2007   -0.5952   -0.6050 C   0  0  0  0  0  0  0  0  0  0  0  0
   -1.2339    0.0115   -1.2865 N   0  0  0  0  0  0  0  0  0  0  0  0
   -2.3666    0.6009   -0.6721 C   0  0  0  0  0  0  0  0  0  0  0  0
   -2.3044    1.1492    0.6173 C   0  0  0  0  0  0  0  0  0  0  0  0
   -3.4156    1.7746    1.1877 C   0  0  0  0  0  0  0  0  0  0  0  0
   -4.6057    1.8949    0.4682 C   0  0  0  0  0  0  0  0  0  0  0  0
   -5.8098    2.5381    1.0900 C   0  0  0  0  0  0  0  0  0  0  0  0
   -4.6724    1.3644   -0.8251 C   0  0  0  0  0  0  0  0  0  0  0  0
   -3.5613    0.7315   -1.4085 C   0  0  0  0  0  0  0  0  0  0  0  0
   -3.6748    0.1858   -2.8066 C   0  0  0  0  0  0  0  0  0  0  0  0
    1.0200   -0.3195   -0.9766 N   0  0  0  0  0  0  0  0  0  0  0  0
    2.0730   -0.9303   -0.3230 C   0  0  0  0  0  0  0  0  0  0  0  0
    3.2787   -0.6644   -0.6831 N   0  0  0  0  0  0  0  0  0  0  0  0
    3.4732    0.2885   -1.7711 C   0  0  0  0  0  0  0  0  0  0  0  0
    4.9731    0.4838   -2.0028 C   0  0  0  0  0  0  0  0  0  0  0  0
    5.7376    1.0668   -0.8100 C   0  0  0  0  0  0  0  0  0  0  0  0
    5.2761    2.4604   -0.4131 C   0  0  0  0  0  0  0  0  0  0  0  0
    1.9910   -1.8336    0.7102 N   0  0  0  0  0  0  0  0  0  0  0  0
    0.8075   -2.1370    1.1117 C   0  0  0  0  0  0  0  0  0  0  0  0
    0.4140   -3.0198    2.1098 N   0  0  0  0  0  0  0  0  0  0  0  0
    1.2253   -4.1262    2.5607 C   0  0  0  0  0  0  0  0  0  0  0  0
   -1.3875   -4.0249    1.9806 H   0  0  0  0  0  0  0  0  0  0  0  0
   -2.4546   -2.1648    0.8312 H   0  0  0  0  0  0  0  0  0  0  0  0
   -0.8686    0.6435   -1.9958 H   0  0  0  0  0  0  0  0  0  0  0  0
   -1.3847    1.1102    1.1965 H   0  0  0  0  0  0  0  0  0  0  0  0
   -3.3383    2.1768    2.1957 H   0  0  0  0  0  0  0  0  0  0  0  0
   -6.4163    1.7827    1.5989 H   0  0  0  0  0  0  0  0  0  0  0  0
   -5.5142    3.3025    1.8163 H   0  0  0  0  0  0  0  0  0  0  0  0
   -6.4239    3.0331    0.3303 H   0  0  0  0  0  0  0  0  0  0  0  0
   -5.6012    1.4483   -1.3872 H   0  0  0  0  0  0  0  0  0  0  0  0
   -4.6781    0.3385   -3.2184 H   0  0  0  0  0  0  0  0  0  0  0  0
   -2.9647    0.6903   -3.4696 H   0  0  0  0  0  0  0  0  0  0  0  0
   -3.4774   -0.8911   -2.8111 H   0  0  0  0  0  0  0  0  0  0  0  0
    3.0341   -0.1020   -2.6976 H   0  0  0  0  0  0  0  0  0  0  0  0
    3.0012    1.2524   -1.5498 H   0  0  0  0  0  0  0  0  0  0  0  0
    5.4237   -0.4831   -2.2600 H   0  0  0  0  0  0  0  0  0  0  0  0
    5.1131    1.1372   -2.8727 H   0  0  0  0  0  0  0  0  0  0  0  0
    6.8012    1.1145   -1.0733 H   0  0  0  0  0  0  0  0  0  0  0  0
    5.6605    0.3980    0.0548 H   0  0  0  0  0  0  0  0  0  0  0  0
    5.3091    3.1440   -1.2671 H   0  0  0  0  0  0  0  0  0  0  0  0
    4.2563    2.4475   -0.0174 H   0  0  0  0  0  0  0  0  0  0  0  0
    5.9283    2.8631    0.3686 H   0  0  0  0  0  0  0  0  0  0  0  0
    0.8006   -4.5683    3.4678 H   0  0  0  0  0  0  0  0  0  0  0  0
    2.2410   -3.7924    2.7954 H   0  0  0  0  0  0  0  0  0  0  0  0
    1.2813   -4.9018    1.7903 H   0  0  0  0  0  0  0  0  0  0  0  0
  1  2  1  0
  2  3  2  0
  3  4  1  0
  4  5  1  0
  5  6  1  0
  6  7  2  0
  7  8  1  0
  8  9  2  0
  9 10  1  0
  9 11  1  0
 11 12  2  0
 12 13  1  0
  4 14  2  0
 14 15  1  0
 15 16  2  3
 16 17  1  0
 17 18  1  0
 18 19  1  0
 19 20  1  0
 15 21  1  0
 21 22  2  0
 22 23  1  0
 23 24  1  0
 23  1  1  0
 22  3  1  0
 12  6  1  0
  1 25  1  0
  2 26  1  0
  5 27  1  0
  7 28  1  0
  8 29  1  0
 10 30  1  0
 10 31  1  0
 10 32  1  0
 11 33  1  0
 13 34  1  0
 13 35  1  0
 13 36  1  0
 17 37  1  0
 17 38  1  0
 18 39  1  0
 18 40  1  0
 19 41  1  0
 19 42  1  0
 20 43  1  0
 20 44  1  0
 20 45  1  0
 24 46  1  0
 24 47  1  0
 24 48  1  0
M  END
>  <ScrubInfo>  (7) 
{"isomerGroup": 0, "isomerId": 6, "confId": 0, "nr_conformers:": 1, "nr_isomers:": 9}

$$$$
_i7
     RDKit          3D

 48 50  0  0  0  0  0  0  0  0999 V2000
   -0.1928   -4.9422    1.2893 N   0  0  0  0  0  0  0  0  0  0  0  0
   -1.1152   -3.9075    1.1774 C   0  0  0  0  0  0  0  0  0  0  0  0
   -0.5877   -2.7954    0.6524 C   0  0  0  0  0  0  0  0  0  0  0  0
   -1.0147   -1.4336    0.3337 C   0  0  0  0  0  0  0  0  0  0  0  0
   -2.2522   -1.0866    0.5324 N   0  0  0  0  0  0  0  0  0  0  0  0
   -2.6346    0.2279    0.2214 C   0  0  0  0  0  0  0  0  0  0  0  0
   -2.5376    1.2140    1.2085 C   0  0  0  0  0  0  0  0  0  0  0  0
   -2.8730    2.5393    0.9286 C   0  0  0  0  0  0  0  0  0  0  0  0
   -3.3300    2.8957   -0.3430 C   0  0  0  0  0  0  0  0  0  0  0  0
   -3.6598    4.3248   -0.6598 C   0  0  0  0  0  0  0  0  0  0  0  0
   -3.4333    1.9085   -1.3321 C   0  0  0  0  0  0  0  0  0  0  0  0
   -3.1080    0.5702   -1.0562 C   0  0  0  0  0  0  0  0  0  0  0  0
   -3.2367   -0.4673   -2.1358 C   0  0  0  0  0  0  0  0  0  0  0  0
    0.0108   -0.6626   -0.1592 N   0  0  0  0  0  0  0  0  0  0  0  0
    1.3113   -1.0623   -0.3641 C   0  0  0  0  0  0  0  0  0  0  0  0
    2.2710   -0.3250   -0.7998 N   0  0  0  0  0  0  0  0  0  0  0  0
    2.0178    1.0743   -1.1145 C   0  0  0  0  0  0  0  0  0  0  0  0
    3.3217    1.7322   -1.5684 C   0  0  0  0  0  0  0  0  0  0  0  0
    4.4334    1.7501   -0.5143 C   0  0  0  0  0  0  0  0  0  0  0  0
    4.0759    2.5415    0.7341 C   0  0  0  0  0  0  0  0  0  0  0  0
    1.7072   -2.3611   -0.1081 N   0  0  0  0  0  0  0  0  0  0  0  0
    0.8230   -3.1868    0.3545 C   0  0  0  0  0  0  0  0  0  0  0  0
    0.9877   -4.5389    0.6677 N   0  0  0  0  0  0  0  0  0  0  0  0
    2.2557   -5.0373    1.1648 C   0  0  0  0  0  0  0  0  0  0  0  0
   -0.5653   -5.8488    0.9982 H   0  0  0  0  0  0  0  0  0  0  0  0
   -2.1351   -4.0600    1.5012 H   0  0  0  0  0  0  0  0  0  0  0  0
   -2.1935    0.9440    2.2037 H   0  0  0  0  0  0  0  0  0  0  0  0
   -2.7804    3.2881    1.7120 H   0  0  0  0  0  0  0  0  0  0  0  0
   -4.0115    4.8526    0.2330 H   0  0  0  0  0  0  0  0  0  0  0  0
   -4.4579    4.3846   -1.4072 H   0  0  0  0  0  0  0  0  0  0  0  0
   -2.7729    4.8361   -1.0463 H   0  0  0  0  0  0  0  0  0  0  0  0
   -3.7815    2.1830   -2.3266 H   0  0  0  0  0  0  0  0  0  0  0  0
   -3.8164   -0.0894   -2.9846 H   0  0  0  0  0  0  0  0  0  0  0  0
   -3.7573   -1.3541   -1.7599 H   0  0  0  0  0  0  0  0  0  0  0  0
   -2.2462   -0.7554   -2.5018 H   0  0  0  0  0  0  0  0  0  0  0  0
   -0.2147    0.2905   -0.3902 H   0  0  0  0  0  0  0  0  0  0  0  0
    1.2927    1.1485   -1.9341 H   0  0  0  0  0  0  0  0  0  0  0  0
    1.6083    1.6087   -0.2503 H   0  0  0  0  0  0  0  0  0  0  0  0
    3.1070    2.7615   -1.8809 H   0  0  0  0  0  0  0  0  0  0  0  0
    3.6977    1.2062   -2.4551 H   0  0  0  0  0  0  0  0  0  0  0  0
    5.3277    2.1971   -0.9652 H   0  0  0  0  0  0  0  0  0  0  0  0
    4.7053    0.7270   -0.2310 H   0  0  0  0  0  0  0  0  0  0  0  0
    4.9441    2.6080    1.3977 H   0  0  0  0  0  0  0  0  0  0  0  0
    3.2681    2.0623    1.2950 H   0  0  0  0  0  0  0  0  0  0  0  0
    3.7657    3.5597    0.4793 H   0  0  0  0  0  0  0  0  0  0  0  0
    2.4874   -4.6037    2.1432 H   0  0  0  0  0  0  0  0  0  0  0  0
    3.0659   -4.7914    0.4710 H   0  0  0  0  0  0  0  0  0  0  0  0
    2.2227   -6.1270    1.2664 H   0  0  0  0  0  0  0  0  0  0  0  0
  1  2  1  0
  2  3  2  0
  3  4  1  0
  4  5  2  3
  5  6  1  0
  6  7  2  0
  7  8  1  0
  8  9  2  0
  9 10  1  0
  9 11  1  0
 11 12  2  0
 12 13  1  0
  4 14  1  0
 14 15  1  0
 15 16  2  3
 16 17  1  0
 17 18  1  0
 18 19  1  0
 19 20  1  0
 15 21  1  0
 21 22  2  0
 22 23  1  0
 23 24  1  0
 23  1  1  0
 22  3  1  0
 12  6  1  0
  1 25  1  0
  2 26  1  0
  7 27  1  0
  8 28  1  0
 10 29  1  0
 10 30  1  0
 10 31  1  0
 11 32  1  0
 13 33  1  0
 13 34  1  0
 13 35  1  0
 14 36  1  0
 17 37  1  0
 17 38  1  0
 18 39  1  0
 18 40  1  0
 19 41  1  0
 19 42  1  0
 20 43  1  0
 20 44  1  0
 20 45  1  0
 24 46  1  0
 24 47  1  0
 24 48  1  0
M  END
>  <ScrubInfo>  (8) 
{"isomerGroup": 0, "isomerId": 7, "confId": 0, "nr_conformers:": 1, "nr_isomers:": 9}

$$$$
_i8
     RDKit          3D

 48 50  0  0  0  0  0  0  0  0999 V2000
   -1.6160   -1.5201    1.1878 N   0  0  0  0  0  0  0  0  0  0  0  0
   -1.2056   -0.3411    0.5815 C   0  0  0  0  0  0  0  0  0  0  0  0
   -1.9449    0.6103    0.1196 N   0  0  0  0  0  0  0  0  0  0  0  0
   -3.3942    0.4775    0.2171 C   0  0  0  0  0  0  0  0  0  0  0  0
   -4.0550    1.7028   -0.4162 C   0  0  0  0  0  0  0  0  0  0  0  0
   -3.7606    1.8933   -1.9077 C   0  0  0  0  0  0  0  0  0  0  0  0
   -4.2637    0.7524   -2.7782 C   0  0  0  0  0  0  0  0  0  0  0  0
    0.1660   -0.2153    0.4822 N   0  0  0  0  0  0  0  0  0  0  0  0
    1.1857   -1.0593    0.8754 C   0  0  0  0  0  0  0  0  0  0  0  0
    2.4693   -0.9495    0.7785 N   0  0  0  0  0  0  0  0  0  0  0  0
    2.9799    0.2112    0.1774 C   0  0  0  0  0  0  0  0  0  0  0  0
    3.2591    1.3242    0.9771 C   0  0  0  0  0  0  0  0  0  0  0  0
    3.7456    2.5044    0.4132 C   0  0  0  0  0  0  0  0  0  0  0  0
    3.9788    2.5830   -0.9624 C   0  0  0  0  0  0  0  0  0  0  0  0
    4.4674    3.8603   -1.5793 C   0  0  0  0  0  0  0  0  0  0  0  0
    3.7045    1.4677   -1.7651 C   0  0  0  0  0  0  0  0  0  0  0  0
    3.2243    0.2725   -1.2047 C   0  0  0  0  0  0  0  0  0  0  0  0
    2.9479   -0.9097   -2.0903 C   0  0  0  0  0  0  0  0  0  0  0  0
    0.6538   -2.2520    1.4902 C   0  0  0  0  0  0  0  0  0  0  0  0
    1.2086   -3.4108    2.0518 C   0  0  0  0  0  0  0  0  0  0  0  0
    0.2696   -4.2571    2.5024 N   0  0  0  0  0  0  0  0  0  0  0  0
   -0.8971   -3.6246    2.2270 N   0  0  0  0  0  0  0  0  0  0  0  0
   -2.1364   -4.2670    2.5845 C   0  0  0  0  0  0  0  0  0  0  0  0
   -0.7034   -2.4224    1.6165 C   0  0  0  0  0  0  0  0  0  0  0  0
   -2.6111   -1.6634    1.2886 H   0  0  0  0  0  0  0  0  0  0  0  0
   -3.6957    0.4302    1.2706 H   0  0  0  0  0  0  0  0  0  0  0  0
   -3.7424   -0.4361   -0.2769 H   0  0  0  0  0  0  0  0  0  0  0  0
   -5.1399    1.6331   -0.2706 H   0  0  0  0  0  0  0  0  0  0  0  0
   -3.7234    2.6030    0.1166 H   0  0  0  0  0  0  0  0  0  0  0  0
   -4.2428    2.8214   -2.2376 H   0  0  0  0  0  0  0  0  0  0  0  0
   -2.6848    2.0267   -2.0689 H   0  0  0  0  0  0  0  0  0  0  0  0
   -4.1211    0.9965   -3.8359 H   0  0  0  0  0  0  0  0  0  0  0  0
   -5.3306    0.5724   -2.6131 H   0  0  0  0  0  0  0  0  0  0  0  0
   -3.7196   -0.1751   -2.5775 H   0  0  0  0  0  0  0  0  0  0  0  0
    0.4528    0.6449    0.0369 H   0  0  0  0  0  0  0  0  0  0  0  0
    3.0917    1.2689    2.0498 H   0  0  0  0  0  0  0  0  0  0  0  0
    3.9446    3.3583    1.0566 H   0  0  0  0  0  0  0  0  0  0  0  0
    5.0881    3.6567   -2.4581 H   0  0  0  0  0  0  0  0  0  0  0  0
    5.0826    4.4263   -0.8719 H   0  0  0  0  0  0  0  0  0  0  0  0
    3.6167    4.4788   -1.8815 H   0  0  0  0  0  0  0  0  0  0  0  0
    3.8750    1.5273   -2.8388 H   0  0  0  0  0  0  0  0  0  0  0  0
    3.3919   -1.8186   -1.6713 H   0  0  0  0  0  0  0  0  0  0  0  0
    3.3791   -0.7706   -3.0874 H   0  0  0  0  0  0  0  0  0  0  0  0
    1.8686   -1.0516   -2.2041 H   0  0  0  0  0  0  0  0  0  0  0  0
    2.2538   -3.6751    2.1506 H   0  0  0  0  0  0  0  0  0  0  0  0
   -2.0752   -4.5847    3.6286 H   0  0  0  0  0  0  0  0  0  0  0  0
   -2.2746   -5.1309    1.9297 H   0  0  0  0  0  0  0  0  0  0  0  0
   -2.9672   -3.5690    2.4638 H   0  0  0  0  0  0  0  0  0  0  0  0
  1  2  1  0
  2  3  2  3
  3  4  1  0
  4  5  1  0
  5  6  1  0
  6  7  1  0
  2  8  1  0
  8  9  1  0
  9 10  2  3
 10 11  1  0
 11 12  2  0
 12 13  1  0
 13 14  2  0
 14 15  1  0
 14 16  1  0
 16 17  2  0
 17 18  1  0
  9 19  1  0
 19 20  1  0
 20 21  2  0
 21 22  1  0
 22 23  1  0
 22 24  1  0
 24  1  1  0
 17 11  1  0
 24 19  2  0
  1 25  1  0
  4 26  1  0
  4 27  1  0
  5 28  1  0
  5 29  1  0
  6 30  1  0
  6 31  1  0
  7 32  1  0
  7 33  1  0
  7 34  1  0
  8 35  1  0
 12 36  1  0
 13 37  1  0
 15 38  1  0
 15 39  1  0
 15 40  1  0
 16 41  1  0
 18 42  1  0
 18 43  1  0
 18 44  1  0
 20 45  1  0
 23 46  1  0
 23 47  1  0
 23 48  1  0
M  END
>  <ScrubInfo>  (9) 
{"isomerGroup": 0, "isomerId": 8, "confId": 0, "nr_conformers:": 1, "nr_isomers:": 9}

$$$$
