REMARK SMILES CCCCNc1nc(Nc2ccc(C)cc2C)c2cnn(C)c2n1
REMARK SMILES IDX 5 1 4 3 3 4 2 5 1 6 6 7 7 8 24 9 8 10 23 11 18 12 21 13
REMARK SMILES IDX 19 14 20 15 22 16 9 17 10 19 11 20 16 21 12 22 15 23 13 24
REMARK SMILES IDX 17 25 14 26
REMARK H PARENT 5 2 9 18
ROOT
ATOM      1  N   UNL     1       2.260  -1.207  -1.618  1.00  0.00    -0.354 N 
ATOM      2  H   UNL     1       3.016  -1.880  -1.679  1.00  0.00     0.163 HD
ENDROOT
BRANCH   1   3
ATOM      3  C   UNL     1       2.643   0.113  -1.145  1.00  0.00     0.116 C 
BRANCH   3   4
ATOM      4  C   UNL     1       1.835   1.206  -1.850  1.00  0.00     0.021 C 
BRANCH   4   5
ATOM      5  C   UNL     1       2.433   2.605  -1.677  1.00  0.00    -0.002 C 
ATOM      6  C   UNL     1       2.484   3.075  -0.233  1.00  0.00     0.004 C 
ENDBRANCH   4   5
ENDBRANCH   3   4
ENDBRANCH   1   3
BRANCH   1   7
ATOM      7  C   UNL     1       1.238  -1.846  -0.930  1.00  0.00     0.226 A 
ATOM      8  N   UNL     1       0.250  -1.127  -0.367  1.00  0.00    -0.195 NA
ATOM      9  N   UNL     1       1.339  -3.182  -0.906  1.00  0.00    -0.193 NA
ATOM     10  C   UNL     1      -0.784  -1.741   0.269  1.00  0.00     0.147 A 
ATOM     11  C   UNL     1       0.319  -3.770  -0.266  1.00  0.00     0.165 A 
ATOM     12  C   UNL     1      -0.752  -3.137   0.330  1.00  0.00     0.082 A 
ATOM     13  N   UNL     1       0.119  -5.110  -0.076  1.00  0.00    -0.250 N 
ATOM     14  C   UNL     1      -1.530  -4.187   0.860  1.00  0.00     0.149 A 
ATOM     15  N   UNL     1      -1.012  -5.395   0.613  1.00  0.00    -0.179 NA
ATOM     16  C   UNL     1       0.965  -6.186  -0.526  1.00  0.00     0.176 C 
BRANCH  10  17
ATOM     17  N   UNL     1      -1.851  -1.004   0.823  1.00  0.00    -0.339 N 
ATOM     18  H   UNL     1      -2.714  -1.531   0.759  1.00  0.00     0.168 HD
BRANCH  17  19
ATOM     19  C   UNL     1      -2.062   0.382   0.645  1.00  0.00     0.043 A 
ATOM     20  C   UNL     1      -3.087   0.804  -0.216  1.00  0.00     0.026 A 
ATOM     21  C   UNL     1      -1.241   1.349   1.253  1.00  0.00    -0.027 A 
ATOM     22  C   UNL     1      -3.302   2.160  -0.472  1.00  0.00     0.005 A 
ATOM     23  C   UNL     1      -1.461   2.712   0.978  1.00  0.00     0.009 A 
ATOM     24  C   UNL     1      -2.480   3.125   0.112  1.00  0.00    -0.051 A 
ATOM     25  C   UNL     1      -0.121   0.973   2.183  1.00  0.00     0.046 C 
ATOM     26  C   UNL     1      -2.716   4.584  -0.142  1.00  0.00     0.044 C 
ENDBRANCH  17  19
ENDBRANCH  10  17
ENDBRANCH   1   7
TORSDOF 6
