_i0
     RDKit          3D

 42 44  0  0  0  0  0  0  0  0999 V2000
   -6.3848   -1.1520    1.6951 C   0  0  0  0  0  0  0  0  0  0  0  0
   -4.8918   -1.2743    1.4357 C   0  0  0  0  0  0  0  0  0  0  0  0
   -4.3779   -0.1249    0.5696 C   0  0  0  0  0  0  0  0  0  0  0  0
   -2.8751   -0.2500    0.3109 C   0  0  0  0  0  0  0  0  0  0  0  0
   -2.4407    0.8586   -0.5214 N   0  0  0  0  0  0  0  0  0  0  0  0
   -1.0697    0.9058   -0.7511 C   0  0  0  0  0  0  0  0  0  0  0  0
   -0.3756   -0.2414   -0.8732 N   0  0  0  0  0  0  0  0  0  0  0  0
    0.9623   -0.2148   -1.0949 C   0  0  0  0  0  0  0  0  0  0  0  0
    1.5929   -1.4760   -1.2001 N   0  0  0  0  0  0  0  0  0  0  0  0
    2.8640   -1.7675   -0.6492 C   0  0  0  0  0  0  0  0  0  0  0  0
    3.9724   -1.7996   -1.5069 C   0  0  0  0  0  0  0  0  0  0  0  0
    5.2531   -2.0422   -1.0054 C   0  0  0  0  0  0  0  0  0  0  0  0
    5.4335   -2.2507    0.3605 C   0  0  0  0  0  0  0  0  0  0  0  0
    7.0123   -2.5488    0.9751 Cl  0  0  0  0  0  0  0  0  0  0  0  0
    4.3476   -2.2217    1.2316 C   0  0  0  0  0  0  0  0  0  0  0  0
    3.0681   -1.9795    0.7277 C   0  0  0  0  0  0  0  0  0  0  0  0
    1.7428   -1.9705    1.8379 Cl  0  0  0  0  0  0  0  0  0  0  0  0
    1.5812    1.0332   -1.1952 C   0  0  0  0  0  0  0  0  0  0  0  0
    2.8642    1.5748   -1.4151 C   0  0  0  0  0  0  0  0  0  0  0  0
    2.8767    2.9130   -1.4090 N   0  0  0  0  0  0  0  0  0  0  0  0
    1.5807    3.2312   -1.1891 N   0  0  0  0  0  0  0  0  0  0  0  0
    1.1926    4.6176   -1.1248 C   0  0  0  0  0  0  0  0  0  0  0  0
    0.7667    2.1405   -1.0511 C   0  0  0  0  0  0  0  0  0  0  0  0
   -0.5553    2.1388   -0.8237 N   0  0  0  0  0  0  0  0  0  0  0  0
   -6.7310   -1.9841    2.3162 H   0  0  0  0  0  0  0  0  0  0  0  0
   -6.9488   -1.1707    0.7571 H   0  0  0  0  0  0  0  0  0  0  0  0
   -6.6171   -0.2185    2.2176 H   0  0  0  0  0  0  0  0  0  0  0  0
   -4.6899   -2.2319    0.9419 H   0  0  0  0  0  0  0  0  0  0  0  0
   -4.3600   -1.2848    2.3942 H   0  0  0  0  0  0  0  0  0  0  0  0
   -4.5891    0.8324    1.0628 H   0  0  0  0  0  0  0  0  0  0  0  0
   -4.9163   -0.1119   -0.3865 H   0  0  0  0  0  0  0  0  0  0  0  0
   -2.3382   -0.2442    1.2681 H   0  0  0  0  0  0  0  0  0  0  0  0
   -2.6784   -1.2067   -0.1888 H   0  0  0  0  0  0  0  0  0  0  0  0
   -2.6946    1.7808   -0.1835 H   0  0  0  0  0  0  0  0  0  0  0  0
    0.8870   -2.1019   -0.8044 H   0  0  0  0  0  0  0  0  0  0  0  0
    3.8355   -1.6380   -2.5745 H   0  0  0  0  0  0  0  0  0  0  0  0
    6.1021   -2.0668   -1.6845 H   0  0  0  0  0  0  0  0  0  0  0  0
    4.4960   -2.3874    2.2952 H   0  0  0  0  0  0  0  0  0  0  0  0
    3.7975    1.0552   -1.5807 H   0  0  0  0  0  0  0  0  0  0  0  0
    1.4443    5.0895   -2.0779 H   0  0  0  0  0  0  0  0  0  0  0  0
    0.1184    4.6986   -0.9441 H   0  0  0  0  0  0  0  0  0  0  0  0
    1.7422    5.0907   -0.3071 H   0  0  0  0  0  0  0  0  0  0  0  0
  1  2  1  0
  2  3  1  0
  3  4  1  0
  4  5  1  0
  5  6  1  0
  6  7  2  0
  7  8  1  0
  8  9  1  0
  9 10  1  0
 10 11  2  0
 11 12  1  0
 12 13  2  0
 13 14  1  0
 13 15  1  0
 15 16  2  0
 16 17  1  0
  8 18  2  0
 18 19  1  0
 19 20  2  0
 20 21  1  0
 21 22  1  0
 21 23  1  0
 23 24  2  0
 24  6  1  0
 16 10  1  0
 23 18  1  0
  1 25  1  0
  1 26  1  0
  1 27  1  0
  2 28  1  0
  2 29  1  0
  3 30  1  0
  3 31  1  0
  4 32  1  0
  4 33  1  0
  5 34  1  0
  9 35  1  0
 11 36  1  0
 12 37  1  0
 15 38  1  0
 19 39  1  0
 22 40  1  0
 22 41  1  0
 22 42  1  0
M  END
>  <ScrubInfo>  (1) 
{"isomerGroup": 0, "isomerId": 0, "confId": 0, "nr_conformers:": 1, "nr_isomers:": 9}

$$$$
_i1
     RDKit          3D

 42 44  0  0  0  0  0  0  0  0999 V2000
   -0.8610    0.1175   -0.1575 N   0  0  0  0  0  0  0  0  0  0  0  0
   -1.8571   -0.8091   -0.4006 C   0  0  0  0  0  0  0  0  0  0  0  0
   -3.1930   -0.4764   -0.6087 N   0  0  0  0  0  0  0  0  0  0  0  0
   -3.7572    0.8030   -0.3945 C   0  0  0  0  0  0  0  0  0  0  0  0
   -4.6242    0.9723    0.6980 C   0  0  0  0  0  0  0  0  0  0  0  0
   -5.1710    2.2242    0.9933 C   0  0  0  0  0  0  0  0  0  0  0  0
   -4.8516    3.3238    0.2017 C   0  0  0  0  0  0  0  0  0  0  0  0
   -5.5272    4.8625    0.5675 Cl  0  0  0  0  0  0  0  0  0  0  0  0
   -3.9914    3.1861   -0.8830 C   0  0  0  0  0  0  0  0  0  0  0  0
   -3.4449    1.9335   -1.1776 C   0  0  0  0  0  0  0  0  0  0  0  0
   -2.4230    1.8199   -2.5690 Cl  0  0  0  0  0  0  0  0  0  0  0  0
   -1.4378   -2.0817   -0.4141 C   0  0  0  0  0  0  0  0  0  0  0  0
   -2.0105   -3.4128   -0.6434 C   0  0  0  0  0  0  0  0  0  0  0  0
   -1.1302   -4.3762   -0.5483 N   0  0  0  0  0  0  0  0  0  0  0  0
    0.0779   -3.7454   -0.2071 N   0  0  0  0  0  0  0  0  0  0  0  0
    1.3121   -4.4800   -0.3509 C   0  0  0  0  0  0  0  0  0  0  0  0
   -0.0056   -2.3624   -0.1654 C   0  0  0  0  0  0  0  0  0  0  0  0
    0.9112   -1.4770    0.0294 N   0  0  0  0  0  0  0  0  0  0  0  0
    0.4683   -0.1728    0.0072 C   0  0  0  0  0  0  0  0  0  0  0  0
    1.3018    0.8059    0.1408 N   0  0  0  0  0  0  0  0  0  0  0  0
    2.7135    0.4568    0.3129 C   0  0  0  0  0  0  0  0  0  0  0  0
    3.5063    1.7567    0.4561 C   0  0  0  0  0  0  0  0  0  0  0  0
    4.9883    1.5349    0.7623 C   0  0  0  0  0  0  0  0  0  0  0  0
    5.7449    0.8501   -0.3654 C   0  0  0  0  0  0  0  0  0  0  0  0
   -1.0850    1.0962   -0.2492 H   0  0  0  0  0  0  0  0  0  0  0  0
   -3.8340   -1.2301   -0.3768 H   0  0  0  0  0  0  0  0  0  0  0  0
   -4.8696    0.1303    1.3416 H   0  0  0  0  0  0  0  0  0  0  0  0
   -5.8381    2.3344    1.8451 H   0  0  0  0  0  0  0  0  0  0  0  0
   -3.7507    4.0477   -1.5004 H   0  0  0  0  0  0  0  0  0  0  0  0
   -3.0725   -3.5402   -0.8883 H   0  0  0  0  0  0  0  0  0  0  0  0
    1.6615   -4.4388   -1.3872 H   0  0  0  0  0  0  0  0  0  0  0  0
    1.1724   -5.5299   -0.0736 H   0  0  0  0  0  0  0  0  0  0  0  0
    2.0910   -4.0650    0.2967 H   0  0  0  0  0  0  0  0  0  0  0  0
    2.8527   -0.1526    1.2140 H   0  0  0  0  0  0  0  0  0  0  0  0
    3.0741   -0.1017   -0.5583 H   0  0  0  0  0  0  0  0  0  0  0  0
    3.4009    2.3561   -0.4569 H   0  0  0  0  0  0  0  0  0  0  0  0
    3.0709    2.3542    1.2674 H   0  0  0  0  0  0  0  0  0  0  0  0
    5.4533    2.5096    0.9522 H   0  0  0  0  0  0  0  0  0  0  0  0
    5.0956    0.9484    1.6821 H   0  0  0  0  0  0  0  0  0  0  0  0
    5.3977   -0.1762   -0.5161 H   0  0  0  0  0  0  0  0  0  0  0  0
    5.6286    1.3975   -1.3061 H   0  0  0  0  0  0  0  0  0  0  0  0
    6.8128    0.8066   -0.1285 H   0  0  0  0  0  0  0  0  0  0  0  0
  1  2  1  0
  2  3  1  0
  3  4  1  0
  4  5  2  0
  5  6  1  0
  6  7  2  0
  7  8  1  0
  7  9  1  0
  9 10  2  0
 10 11  1  0
  2 12  2  0
 12 13  1  0
 13 14  2  0
 14 15  1  0
 15 16  1  0
 15 17  1  0
 17 18  2  0
 18 19  1  0
 19 20  2  3
 20 21  1  0
 21 22  1  0
 22 23  1  0
 23 24  1  0
 19  1  1  0
 10  4  1  0
 17 12  1  0
  1 25  1  0
  3 26  1  0
  5 27  1  0
  6 28  1  0
  9 29  1  0
 13 30  1  0
 16 31  1  0
 16 32  1  0
 16 33  1  0
 21 34  1  0
 21 35  1  0
 22 36  1  0
 22 37  1  0
 23 38  1  0
 23 39  1  0
 24 40  1  0
 24 41  1  0
 24 42  1  0
M  END
>  <ScrubInfo>  (2) 
{"isomerGroup": 0, "isomerId": 1, "confId": 0, "nr_conformers:": 1, "nr_isomers:": 9}

$$$$
_i2
     RDKit          3D

 42 44  0  0  0  0  0  0  0  0999 V2000
   -0.0560    0.7982    0.4455 N   0  0  0  0  0  0  0  0  0  0  0  0
   -1.0347   -0.1664    0.4250 C   0  0  0  0  0  0  0  0  0  0  0  0
   -2.2816    0.3399    0.6819 N   0  0  0  0  0  0  0  0  0  0  0  0
   -3.4285   -0.5507    0.8021 C   0  0  0  0  0  0  0  0  0  0  0  0
   -4.7220    0.2548    0.9296 C   0  0  0  0  0  0  0  0  0  0  0  0
   -5.0635    1.0242   -0.3488 C   0  0  0  0  0  0  0  0  0  0  0  0
   -6.3781    1.7760   -0.2096 C   0  0  0  0  0  0  0  0  0  0  0  0
   -0.8023   -1.4286    0.1749 N   0  0  0  0  0  0  0  0  0  0  0  0
    0.5222   -1.6672   -0.0387 C   0  0  0  0  0  0  0  0  0  0  0  0
    1.5749   -0.7643   -0.0356 C   0  0  0  0  0  0  0  0  0  0  0  0
    2.7059   -1.5511   -0.3141 C   0  0  0  0  0  0  0  0  0  0  0  0
    2.4104   -2.8460   -0.4823 N   0  0  0  0  0  0  0  0  0  0  0  0
    1.0702   -2.8902   -0.3055 N   0  0  0  0  0  0  0  0  0  0  0  0
    0.3847   -4.1531   -0.4145 C   0  0  0  0  0  0  0  0  0  0  0  0
    1.2901    0.6349    0.2142 C   0  0  0  0  0  0  0  0  0  0  0  0
    2.1065    1.6448    0.2218 N   0  0  0  0  0  0  0  0  0  0  0  0
    3.4835    1.4944    0.0138 C   0  0  0  0  0  0  0  0  0  0  0  0
    3.9890    1.6549   -1.2823 C   0  0  0  0  0  0  0  0  0  0  0  0
    5.3605    1.5556   -1.5286 C   0  0  0  0  0  0  0  0  0  0  0  0
    6.2369    1.3108   -0.4731 C   0  0  0  0  0  0  0  0  0  0  0  0
    7.9254    1.1904   -0.7790 Cl  0  0  0  0  0  0  0  0  0  0  0  0
    5.7587    1.1684    0.8270 C   0  0  0  0  0  0  0  0  0  0  0  0
    4.3866    1.2683    1.0694 C   0  0  0  0  0  0  0  0  0  0  0  0
    3.8312    1.0952    2.6976 Cl  0  0  0  0  0  0  0  0  0  0  0  0
   -0.3450    1.7588    0.5249 H   0  0  0  0  0  0  0  0  0  0  0  0
   -2.2912    1.0825    1.3711 H   0  0  0  0  0  0  0  0  0  0  0  0
   -3.4918   -1.2143   -0.0683 H   0  0  0  0  0  0  0  0  0  0  0  0
   -3.3065   -1.1756    1.6943 H   0  0  0  0  0  0  0  0  0  0  0  0
   -5.5409   -0.4373    1.1612 H   0  0  0  0  0  0  0  0  0  0  0  0
   -4.6455    0.9539    1.7716 H   0  0  0  0  0  0  0  0  0  0  0  0
   -4.2684    1.7406   -0.5846 H   0  0  0  0  0  0  0  0  0  0  0  0
   -5.1352    0.3290   -1.1932 H   0  0  0  0  0  0  0  0  0  0  0  0
   -6.3298    2.5024    0.6079 H   0  0  0  0  0  0  0  0  0  0  0  0
   -7.2049    1.0871   -0.0094 H   0  0  0  0  0  0  0  0  0  0  0  0
   -6.6041    2.3182   -1.1331 H   0  0  0  0  0  0  0  0  0  0  0  0
    3.7415   -1.2592   -0.4099 H   0  0  0  0  0  0  0  0  0  0  0  0
    0.8225   -4.8459    0.3088 H   0  0  0  0  0  0  0  0  0  0  0  0
    0.5183   -4.5289   -1.4321 H   0  0  0  0  0  0  0  0  0  0  0  0
   -0.6791   -4.0245   -0.2036 H   0  0  0  0  0  0  0  0  0  0  0  0
    3.3069    1.8598   -2.1042 H   0  0  0  0  0  0  0  0  0  0  0  0
    5.7358    1.6756   -2.5420 H   0  0  0  0  0  0  0  0  0  0  0  0
    6.4477    0.9849    1.6467 H   0  0  0  0  0  0  0  0  0  0  0  0
  1  2  1  0
  2  3  1  0
  3  4  1  0
  4  5  1  0
  5  6  1  0
  6  7  1  0
  2  8  2  0
  8  9  1  0
  9 10  2  0
 10 11  1  0
 11 12  2  0
 12 13  1  0
 13 14  1  0
 10 15  1  0
 15 16  2  3
 16 17  1  0
 17 18  2  0
 18 19  1  0
 19 20  2  0
 20 21  1  0
 20 22  1  0
 22 23  2  0
 23 24  1  0
 15  1  1  0
 23 17  1  0
 13  9  1  0
  1 25  1  0
  3 26  1  0
  4 27  1  0
  4 28  1  0
  5 29  1  0
  5 30  1  0
  6 31  1  0
  6 32  1  0
  7 33  1  0
  7 34  1  0
  7 35  1  0
 11 36  1  0
 14 37  1  0
 14 38  1  0
 14 39  1  0
 18 40  1  0
 19 41  1  0
 22 42  1  0
M  END
>  <ScrubInfo>  (3) 
{"isomerGroup": 0, "isomerId": 2, "confId": 0, "nr_conformers:": 1, "nr_isomers:": 9}

$$$$
_i3
     RDKit          3D

 42 44  0  0  0  0  0  0  0  0999 V2000
    0.8754   -1.8504   -0.0663 N   0  0  0  0  0  0  0  0  0  0  0  0
    1.2764   -0.5904    0.3216 C   0  0  0  0  0  0  0  0  0  0  0  0
    2.4456   -0.4686    0.8582 N   0  0  0  0  0  0  0  0  0  0  0  0
    2.8932    0.8550    1.2901 C   0  0  0  0  0  0  0  0  0  0  0  0
    3.6100    1.5858    0.1539 C   0  0  0  0  0  0  0  0  0  0  0  0
    4.8315    0.8558   -0.4133 C   0  0  0  0  0  0  0  0  0  0  0  0
    5.9423    0.6467    0.6039 C   0  0  0  0  0  0  0  0  0  0  0  0
    0.4664    0.5205    0.1394 N   0  0  0  0  0  0  0  0  0  0  0  0
   -0.7126    0.3656   -0.3992 C   0  0  0  0  0  0  0  0  0  0  0  0
   -1.5596    1.4276   -0.6075 N   0  0  0  0  0  0  0  0  0  0  0  0
   -2.9277    1.4426   -0.2230 C   0  0  0  0  0  0  0  0  0  0  0  0
   -3.8273    2.0380   -1.1239 C   0  0  0  0  0  0  0  0  0  0  0  0
   -5.1854    2.1489   -0.8180 C   0  0  0  0  0  0  0  0  0  0  0  0
   -5.6551    1.6921    0.4095 C   0  0  0  0  0  0  0  0  0  0  0  0
   -7.3268    1.8308    0.7884 Cl  0  0  0  0  0  0  0  0  0  0  0  0
   -4.7781    1.1413    1.3392 C   0  0  0  0  0  0  0  0  0  0  0  0
   -3.4172    1.0316    1.0335 C   0  0  0  0  0  0  0  0  0  0  0  0
   -2.3838    0.4218    2.2776 Cl  0  0  0  0  0  0  0  0  0  0  0  0
   -1.1570   -0.9339   -0.8543 C   0  0  0  0  0  0  0  0  0  0  0  0
   -2.2621   -1.4920   -1.5150 C   0  0  0  0  0  0  0  0  0  0  0  0
   -2.1370   -2.8167   -1.6949 N   0  0  0  0  0  0  0  0  0  0  0  0
   -0.9298   -3.1051   -1.1481 N   0  0  0  0  0  0  0  0  0  0  0  0
   -0.4565   -4.4655   -1.1659 C   0  0  0  0  0  0  0  0  0  0  0  0
   -0.3212   -1.9978   -0.6524 C   0  0  0  0  0  0  0  0  0  0  0  0
    1.5532   -2.5803    0.1070 H   0  0  0  0  0  0  0  0  0  0  0  0
    2.0713    1.4708    1.6752 H   0  0  0  0  0  0  0  0  0  0  0  0
    3.5711    0.7244    2.1407 H   0  0  0  0  0  0  0  0  0  0  0  0
    2.9048    1.7604   -0.6678 H   0  0  0  0  0  0  0  0  0  0  0  0
    3.9191    2.5749    0.5136 H   0  0  0  0  0  0  0  0  0  0  0  0
    4.5348   -0.1120   -0.8333 H   0  0  0  0  0  0  0  0  0  0  0  0
    5.2298    1.4478   -1.2461 H   0  0  0  0  0  0  0  0  0  0  0  0
    5.6364   -0.0431    1.3958 H   0  0  0  0  0  0  0  0  0  0  0  0
    6.8232    0.2183    0.1148 H   0  0  0  0  0  0  0  0  0  0  0  0
    6.2381    1.5948    1.0640 H   0  0  0  0  0  0  0  0  0  0  0  0
   -1.1122    2.2606   -0.2275 H   0  0  0  0  0  0  0  0  0  0  0  0
   -3.4698    2.4027   -2.0858 H   0  0  0  0  0  0  0  0  0  0  0  0
   -5.8669    2.5939   -1.5391 H   0  0  0  0  0  0  0  0  0  0  0  0
   -5.1496    0.8105    2.3059 H   0  0  0  0  0  0  0  0  0  0  0  0
   -3.1559   -1.0046   -1.8802 H   0  0  0  0  0  0  0  0  0  0  0  0
    0.4907   -4.5376   -0.6273 H   0  0  0  0  0  0  0  0  0  0  0  0
   -0.3168   -4.7668   -2.2071 H   0  0  0  0  0  0  0  0  0  0  0  0
   -1.2047   -5.0982   -0.6817 H   0  0  0  0  0  0  0  0  0  0  0  0
  1  2  1  0
  2  3  2  3
  3  4  1  0
  4  5  1  0
  5  6  1  0
  6  7  1  0
  2  8  1  0
  8  9  2  0
  9 10  1  0
 10 11  1  0
 11 12  2  0
 12 13  1  0
 13 14  2  0
 14 15  1  0
 14 16  1  0
 16 17  2  0
 17 18  1  0
  9 19  1  0
 19 20  1  0
 20 21  2  0
 21 22  1  0
 22 23  1  0
 22 24  1  0
 24  1  1  0
 17 11  1  0
 24 19  2  0
  1 25  1  0
  4 26  1  0
  4 27  1  0
  5 28  1  0
  5 29  1  0
  6 30  1  0
  6 31  1  0
  7 32  1  0
  7 33  1  0
  7 34  1  0
 10 35  1  0
 12 36  1  0
 13 37  1  0
 16 38  1  0
 20 39  1  0
 23 40  1  0
 23 41  1  0
 23 42  1  0
M  END
>  <ScrubInfo>  (4) 
{"isomerGroup": 0, "isomerId": 3, "confId": 0, "nr_conformers:": 1, "nr_isomers:": 9}

$$$$
_i4
     RDKit          3D

 42 44  0  0  0  0  0  0  0  0999 V2000
   -1.8950    2.6345   -1.0764 N   0  0  0  0  0  0  0  0  0  0  0  0
   -2.2733    1.3895   -0.5853 C   0  0  0  0  0  0  0  0  0  0  0  0
   -1.2840    0.7398    0.0477 C   0  0  0  0  0  0  0  0  0  0  0  0
   -1.0439   -0.5359    0.7107 C   0  0  0  0  0  0  0  0  0  0  0  0
   -1.8339   -1.5328    0.9347 N   0  0  0  0  0  0  0  0  0  0  0  0
   -3.1666   -1.5144    0.5055 C   0  0  0  0  0  0  0  0  0  0  0  0
   -4.1549   -1.1339    1.4220 C   0  0  0  0  0  0  0  0  0  0  0  0
   -5.5031   -1.1317    1.0573 C   0  0  0  0  0  0  0  0  0  0  0  0
   -5.8716   -1.5265   -0.2271 C   0  0  0  0  0  0  0  0  0  0  0  0
   -7.5318   -1.5174   -0.6771 Cl  0  0  0  0  0  0  0  0  0  0  0  0
   -4.9083   -1.9285   -1.1488 C   0  0  0  0  0  0  0  0  0  0  0  0
   -3.5605   -1.9296   -0.7800 C   0  0  0  0  0  0  0  0  0  0  0  0
   -2.3975   -2.4305   -1.9567 Cl  0  0  0  0  0  0  0  0  0  0  0  0
    0.2376   -0.6930    1.1662 N   0  0  0  0  0  0  0  0  0  0  0  0
    1.1594    0.2145    1.0363 C   0  0  0  0  0  0  0  0  0  0  0  0
    2.3875   -0.1086    1.5330 N   0  0  0  0  0  0  0  0  0  0  0  0
    3.6222    0.5186    1.1205 C   0  0  0  0  0  0  0  0  0  0  0  0
    4.0444    0.0835   -0.2845 C   0  0  0  0  0  0  0  0  0  0  0  0
    4.2743   -1.4210   -0.4605 C   0  0  0  0  0  0  0  0  0  0  0  0
    5.3762   -1.9769    0.4276 C   0  0  0  0  0  0  0  0  0  0  0  0
    0.9885    1.4406    0.4532 N   0  0  0  0  0  0  0  0  0  0  0  0
   -0.1802    1.7176   -0.0077 C   0  0  0  0  0  0  0  0  0  0  0  0
   -0.6141    2.8966   -0.6155 N   0  0  0  0  0  0  0  0  0  0  0  0
    0.2845    3.6860   -1.4356 C   0  0  0  0  0  0  0  0  0  0  0  0
   -2.5909    3.3662   -0.9141 H   0  0  0  0  0  0  0  0  0  0  0  0
   -3.2899    1.0681   -0.7519 H   0  0  0  0  0  0  0  0  0  0  0  0
   -3.8662   -0.8470    2.4310 H   0  0  0  0  0  0  0  0  0  0  0  0
   -6.2563   -0.8322    1.7819 H   0  0  0  0  0  0  0  0  0  0  0  0
   -5.2028   -2.2441   -2.1459 H   0  0  0  0  0  0  0  0  0  0  0  0
    2.4459   -1.0874    1.7873 H   0  0  0  0  0  0  0  0  0  0  0  0
    4.4040    0.2693    1.8455 H   0  0  0  0  0  0  0  0  0  0  0  0
    3.5222    1.6100    1.1511 H   0  0  0  0  0  0  0  0  0  0  0  0
    4.9653    0.6169   -0.5508 H   0  0  0  0  0  0  0  0  0  0  0  0
    3.2842    0.4004   -1.0092 H   0  0  0  0  0  0  0  0  0  0  0  0
    4.5441   -1.6070   -1.5072 H   0  0  0  0  0  0  0  0  0  0  0  0
    3.3451   -1.9723   -0.2775 H   0  0  0  0  0  0  0  0  0  0  0  0
    6.3105   -1.4241    0.2880 H   0  0  0  0  0  0  0  0  0  0  0  0
    5.1002   -1.9312    1.4851 H   0  0  0  0  0  0  0  0  0  0  0  0
    5.5638   -3.0268    0.1803 H   0  0  0  0  0  0  0  0  0  0  0  0
    1.1826    3.9578   -0.8718 H   0  0  0  0  0  0  0  0  0  0  0  0
    0.5864    3.1294   -2.3290 H   0  0  0  0  0  0  0  0  0  0  0  0
   -0.2043    4.6132   -1.7520 H   0  0  0  0  0  0  0  0  0  0  0  0
  1  2  1  0
  2  3  2  0
  3  4  1  0
  4  5  2  3
  5  6  1  0
  6  7  2  0
  7  8  1  0
  8  9  2  0
  9 10  1  0
  9 11  1  0
 11 12  2  0
 12 13  1  0
  4 14  1  0
 14 15  2  0
 15 16  1  0
 16 17  1  0
 17 18  1  0
 18 19  1  0
 19 20  1  0
 15 21  1  0
 21 22  2  0
 22 23  1  0
 23 24  1  0
 23  1  1  0
 22  3  1  0
 12  6  1  0
  1 25  1  0
  2 26  1  0
  7 27  1  0
  8 28  1  0
 11 29  1  0
 16 30  1  0
 17 31  1  0
 17 32  1  0
 18 33  1  0
 18 34  1  0
 19 35  1  0
 19 36  1  0
 20 37  1  0
 20 38  1  0
 20 39  1  0
 24 40  1  0
 24 41  1  0
 24 42  1  0
M  END
>  <ScrubInfo>  (5) 
{"isomerGroup": 0, "isomerId": 4, "confId": 0, "nr_conformers:": 1, "nr_isomers:": 9}

$$$$
_i5
     RDKit          3D

 42 44  0  0  0  0  0  0  0  0999 V2000
    0.3821   -1.8478   -0.2745 N   0  0  0  0  0  0  0  0  0  0  0  0
    0.1657   -0.4902   -0.2107 C   0  0  0  0  0  0  0  0  0  0  0  0
    1.1881    0.2832   -0.6823 N   0  0  0  0  0  0  0  0  0  0  0  0
    2.5466    0.1386   -0.1725 C   0  0  0  0  0  0  0  0  0  0  0  0
    3.4863    1.1233   -0.8695 C   0  0  0  0  0  0  0  0  0  0  0  0
    3.6823    0.7978   -2.3522 C   0  0  0  0  0  0  0  0  0  0  0  0
    4.6582    1.7624   -3.0078 C   0  0  0  0  0  0  0  0  0  0  0  0
   -0.9158    0.0901    0.2337 N   0  0  0  0  0  0  0  0  0  0  0  0
   -1.9523   -0.7003    0.7165 C   0  0  0  0  0  0  0  0  0  0  0  0
   -3.0499   -0.2300    1.2179 N   0  0  0  0  0  0  0  0  0  0  0  0
   -3.1833    1.1670    1.3058 C   0  0  0  0  0  0  0  0  0  0  0  0
   -3.9288    1.8277    0.3211 C   0  0  0  0  0  0  0  0  0  0  0  0
   -4.1075    3.2122    0.3699 C   0  0  0  0  0  0  0  0  0  0  0  0
   -3.5479    3.9438    1.4151 C   0  0  0  0  0  0  0  0  0  0  0  0
   -3.7664    5.6496    1.4734 Cl  0  0  0  0  0  0  0  0  0  0  0  0
   -2.8174    3.3069    2.4150 C   0  0  0  0  0  0  0  0  0  0  0  0
   -2.6407    1.9217    2.3624 C   0  0  0  0  0  0  0  0  0  0  0  0
   -1.7434    1.1702    3.6370 Cl  0  0  0  0  0  0  0  0  0  0  0  0
   -1.7846   -2.1281    0.6354 C   0  0  0  0  0  0  0  0  0  0  0  0
   -2.5583   -3.2531    0.9486 C   0  0  0  0  0  0  0  0  0  0  0  0
   -1.9278   -4.4020    0.6513 N   0  0  0  0  0  0  0  0  0  0  0  0
   -0.7341   -3.9961    0.1499 N   0  0  0  0  0  0  0  0  0  0  0  0
    0.2216   -4.9874   -0.2725 C   0  0  0  0  0  0  0  0  0  0  0  0
   -0.6209   -2.6427    0.1357 C   0  0  0  0  0  0  0  0  0  0  0  0
    1.1654   -2.1651   -0.8286 H   0  0  0  0  0  0  0  0  0  0  0  0
    0.8888    1.2558   -0.6238 H   0  0  0  0  0  0  0  0  0  0  0  0
    2.5480    0.3426    0.9046 H   0  0  0  0  0  0  0  0  0  0  0  0
    2.9128   -0.8836   -0.3178 H   0  0  0  0  0  0  0  0  0  0  0  0
    3.1024    2.1456   -0.7637 H   0  0  0  0  0  0  0  0  0  0  0  0
    4.4592    1.0926   -0.3638 H   0  0  0  0  0  0  0  0  0  0  0  0
    4.0607   -0.2252   -2.4614 H   0  0  0  0  0  0  0  0  0  0  0  0
    2.7242    0.8478   -2.8817 H   0  0  0  0  0  0  0  0  0  0  0  0
    4.7848    1.5126   -4.0659 H   0  0  0  0  0  0  0  0  0  0  0  0
    4.2942    2.7928   -2.9431 H   0  0  0  0  0  0  0  0  0  0  0  0
    5.6407    1.7137   -2.5275 H   0  0  0  0  0  0  0  0  0  0  0  0
   -4.3678    1.2537   -0.4912 H   0  0  0  0  0  0  0  0  0  0  0  0
   -4.6833    3.7080   -0.4071 H   0  0  0  0  0  0  0  0  0  0  0  0
   -2.3913    3.8816    3.2321 H   0  0  0  0  0  0  0  0  0  0  0  0
   -3.5533   -3.2887    1.3736 H   0  0  0  0  0  0  0  0  0  0  0  0
   -0.2052   -5.5394   -1.1136 H   0  0  0  0  0  0  0  0  0  0  0  0
    1.1505   -4.5020   -0.5793 H   0  0  0  0  0  0  0  0  0  0  0  0
    0.4170   -5.6597    0.5668 H   0  0  0  0  0  0  0  0  0  0  0  0
  1  2  1  0
  2  3  1  0
  3  4  1  0
  4  5  1  0
  5  6  1  0
  6  7  1  0
  2  8  2  0
  8  9  1  0
  9 10  2  3
 10 11  1  0
 11 12  2  0
 12 13  1  0
 13 14  2  0
 14 15  1  0
 14 16  1  0
 16 17  2  0
 17 18  1  0
  9 19  1  0
 19 20  1  0
 20 21  2  0
 21 22  1  0
 22 23  1  0
 22 24  1  0
 24  1  1  0
 17 11  1  0
 24 19  2  0
  1 25  1  0
  3 26  1  0
  4 27  1  0
  4 28  1  0
  5 29  1  0
  5 30  1  0
  6 31  1  0
  6 32  1  0
  7 33  1  0
  7 34  1  0
  7 35  1  0
 12 36  1  0
 13 37  1  0
 16 38  1  0
 20 39  1  0
 23 40  1  0
 23 41  1  0
 23 42  1  0
M  END
>  <ScrubInfo>  (6) 
{"isomerGroup": 0, "isomerId": 5, "confId": 0, "nr_conformers:": 1, "nr_isomers:": 9}

$$$$
_i6
     RDKit          3D

 42 44  0  0  0  0  0  0  0  0999 V2000
   -0.7944   -4.1279    0.2317 N   0  0  0  0  0  0  0  0  0  0  0  0
   -1.7933   -3.1660    0.1311 C   0  0  0  0  0  0  0  0  0  0  0  0
   -1.3148   -1.9148    0.1616 C   0  0  0  0  0  0  0  0  0  0  0  0
   -1.8286   -0.5461    0.1393 C   0  0  0  0  0  0  0  0  0  0  0  0
   -3.1899   -0.3232   -0.0138 N   0  0  0  0  0  0  0  0  0  0  0  0
   -3.7477    0.9751   -0.0594 C   0  0  0  0  0  0  0  0  0  0  0  0
   -4.2890    1.4328   -1.2718 C   0  0  0  0  0  0  0  0  0  0  0  0
   -4.7803    2.7359   -1.3882 C   0  0  0  0  0  0  0  0  0  0  0  0
   -4.7284    3.5971   -0.2947 C   0  0  0  0  0  0  0  0  0  0  0  0
   -5.3387    5.1988   -0.4433 Cl  0  0  0  0  0  0  0  0  0  0  0  0
   -4.1960    3.1691    0.9171 C   0  0  0  0  0  0  0  0  0  0  0  0
   -3.7051    1.8655    1.0340 C   0  0  0  0  0  0  0  0  0  0  0  0
   -3.1505    1.3600    2.5955 Cl  0  0  0  0  0  0  0  0  0  0  0  0
   -0.9618    0.4200    0.2504 N   0  0  0  0  0  0  0  0  0  0  0  0
    0.3762    0.1307    0.3975 C   0  0  0  0  0  0  0  0  0  0  0  0
    1.1149    1.1712    0.5500 N   0  0  0  0  0  0  0  0  0  0  0  0
    2.5553    1.0121    0.7252 C   0  0  0  0  0  0  0  0  0  0  0  0
    3.2499    1.0602   -0.6346 C   0  0  0  0  0  0  0  0  0  0  0  0
    4.7666    0.9480   -0.4892 C   0  0  0  0  0  0  0  0  0  0  0  0
    5.4610    0.9966   -1.8409 C   0  0  0  0  0  0  0  0  0  0  0  0
    0.9540   -1.1191    0.3715 N   0  0  0  0  0  0  0  0  0  0  0  0
    0.1469   -2.1132    0.2465 C   0  0  0  0  0  0  0  0  0  0  0  0
    0.4344   -3.4774    0.1819 N   0  0  0  0  0  0  0  0  0  0  0  0
    1.5585   -4.0335    0.9122 C   0  0  0  0  0  0  0  0  0  0  0  0
   -0.9119   -4.9195   -0.4049 H   0  0  0  0  0  0  0  0  0  0  0  0
   -2.8213   -3.4877    0.0517 H   0  0  0  0  0  0  0  0  0  0  0  0
   -3.6748   -0.9928   -0.5970 H   0  0  0  0  0  0  0  0  0  0  0  0
   -4.3084    0.7865   -2.1459 H   0  0  0  0  0  0  0  0  0  0  0  0
   -5.1885    3.0762   -2.3367 H   0  0  0  0  0  0  0  0  0  0  0  0
   -4.1654    3.8422    1.7694 H   0  0  0  0  0  0  0  0  0  0  0  0
    2.8221    0.1029    1.2772 H   0  0  0  0  0  0  0  0  0  0  0  0
    2.9090    1.8462    1.3430 H   0  0  0  0  0  0  0  0  0  0  0  0
    2.8801    0.2479   -1.2721 H   0  0  0  0  0  0  0  0  0  0  0  0
    2.9941    1.9982   -1.1432 H   0  0  0  0  0  0  0  0  0  0  0  0
    5.1425    1.7650    0.1377 H   0  0  0  0  0  0  0  0  0  0  0  0
    5.0237    0.0083    0.0133 H   0  0  0  0  0  0  0  0  0  0  0  0
    6.5449    0.9148   -1.7133 H   0  0  0  0  0  0  0  0  0  0  0  0
    5.1310    0.1724   -2.4812 H   0  0  0  0  0  0  0  0  0  0  0  0
    5.2497    1.9388   -2.3567 H   0  0  0  0  0  0  0  0  0  0  0  0
    1.6808   -5.0945    0.6715 H   0  0  0  0  0  0  0  0  0  0  0  0
    2.4863   -3.5200    0.6404 H   0  0  0  0  0  0  0  0  0  0  0  0
    1.4071   -3.9367    1.9923 H   0  0  0  0  0  0  0  0  0  0  0  0
  1  2  1  0
  2  3  2  0
  3  4  1  0
  4  5  1  0
  5  6  1  0
  6  7  2  0
  7  8  1  0
  8  9  2  0
  9 10  1  0
  9 11  1  0
 11 12  2  0
 12 13  1  0
  4 14  2  0
 14 15  1  0
 15 16  2  3
 16 17  1  0
 17 18  1  0
 18 19  1  0
 19 20  1  0
 15 21  1  0
 21 22  2  0
 22 23  1  0
 23 24  1  0
 23  1  1  0
 22  3  1  0
 12  6  1  0
  1 25  1  0
  2 26  1  0
  5 27  1  0
  7 28  1  0
  8 29  1  0
 11 30  1  0
 17 31  1  0
 17 32  1  0
 18 33  1  0
 18 34  1  0
 19 35  1  0
 19 36  1  0
 20 37  1  0
 20 38  1  0
 20 39  1  0
 24 40  1  0
 24 41  1  0
 24 42  1  0
M  END
>  <ScrubInfo>  (7) 
{"isomerGroup": 0, "isomerId": 6, "confId": 0, "nr_conformers:": 1, "nr_isomers:": 9}

$$$$
_i7
     RDKit          3D

 42 44  0  0  0  0  0  0  0  0999 V2000
    1.6585   -3.3453   -0.0460 N   0  0  0  0  0  0  0  0  0  0  0  0
    2.1950   -2.0633   -0.0923 C   0  0  0  0  0  0  0  0  0  0  0  0
    1.2899   -1.0956    0.1129 C   0  0  0  0  0  0  0  0  0  0  0  0
    1.1874    0.3746    0.1502 C   0  0  0  0  0  0  0  0  0  0  0  0
    2.1204    1.2717    0.0174 N   0  0  0  0  0  0  0  0  0  0  0  0
    3.4614    0.9020   -0.1613 C   0  0  0  0  0  0  0  0  0  0  0  0
    3.9740    0.8597   -1.4636 C   0  0  0  0  0  0  0  0  0  0  0  0
    5.3123    0.5310   -1.6921 C   0  0  0  0  0  0  0  0  0  0  0  0
    6.1508    0.2571   -0.6134 C   0  0  0  0  0  0  0  0  0  0  0  0
    7.7971   -0.1521   -0.8970 Cl  0  0  0  0  0  0  0  0  0  0  0  0
    5.6680    0.3127    0.6915 C   0  0  0  0  0  0  0  0  0  0  0  0
    4.3289    0.6414    0.9160 C   0  0  0  0  0  0  0  0  0  0  0  0
    3.7678    0.6990    2.5501 Cl  0  0  0  0  0  0  0  0  0  0  0  0
   -0.0970    0.8084    0.3479 N   0  0  0  0  0  0  0  0  0  0  0  0
   -1.2187    0.0367    0.5193 C   0  0  0  0  0  0  0  0  0  0  0  0
   -2.4208    0.4635    0.6819 N   0  0  0  0  0  0  0  0  0  0  0  0
   -2.6784    1.8971    0.6900 C   0  0  0  0  0  0  0  0  0  0  0  0
   -4.1777    2.1365    0.8714 C   0  0  0  0  0  0  0  0  0  0  0  0
   -4.9950    1.6736   -0.3369 C   0  0  0  0  0  0  0  0  0  0  0  0
   -6.4763    1.9619   -0.1484 C   0  0  0  0  0  0  0  0  0  0  0  0
   -1.1328   -1.3393    0.5336 N   0  0  0  0  0  0  0  0  0  0  0  0
    0.0311   -1.8803    0.3620 C   0  0  0  0  0  0  0  0  0  0  0  0
    0.3357   -3.2430    0.3580 N   0  0  0  0  0  0  0  0  0  0  0  0
   -0.6287   -4.2228   -0.1043 C   0  0  0  0  0  0  0  0  0  0  0  0
    2.2349   -4.0098    0.4759 H   0  0  0  0  0  0  0  0  0  0  0  0
    3.2520   -1.9658   -0.2868 H   0  0  0  0  0  0  0  0  0  0  0  0
    3.3235    1.0898   -2.3045 H   0  0  0  0  0  0  0  0  0  0  0  0
    5.6928    0.4991   -2.7102 H   0  0  0  0  0  0  0  0  0  0  0  0
    6.3292    0.1071    1.5289 H   0  0  0  0  0  0  0  0  0  0  0  0
   -0.2033    1.8087    0.3823 H   0  0  0  0  0  0  0  0  0  0  0  0
   -2.1489    2.3692    1.5260 H   0  0  0  0  0  0  0  0  0  0  0  0
   -2.3427    2.3638   -0.2437 H   0  0  0  0  0  0  0  0  0  0  0  0
   -4.3438    3.2092    1.0283 H   0  0  0  0  0  0  0  0  0  0  0  0
   -4.5287    1.6200    1.7734 H   0  0  0  0  0  0  0  0  0  0  0  0
   -4.8602    0.5979   -0.4967 H   0  0  0  0  0  0  0  0  0  0  0  0
   -4.6425    2.1828   -1.2414 H   0  0  0  0  0  0  0  0  0  0  0  0
   -7.0422    1.6246   -1.0224 H   0  0  0  0  0  0  0  0  0  0  0  0
   -6.6543    3.0346   -0.0220 H   0  0  0  0  0  0  0  0  0  0  0  0
   -6.8681    1.4420    0.7316 H   0  0  0  0  0  0  0  0  0  0  0  0
   -1.5687   -4.1308    0.4492 H   0  0  0  0  0  0  0  0  0  0  0  0
   -0.2469   -5.2367    0.0536 H   0  0  0  0  0  0  0  0  0  0  0  0
   -0.8351   -4.0913   -1.1716 H   0  0  0  0  0  0  0  0  0  0  0  0
  1  2  1  0
  2  3  2  0
  3  4  1  0
  4  5  2  3
  5  6  1  0
  6  7  2  0
  7  8  1  0
  8  9  2  0
  9 10  1  0
  9 11  1  0
 11 12  2  0
 12 13  1  0
  4 14  1  0
 14 15  1  0
 15 16  2  3
 16 17  1  0
 17 18  1  0
 18 19  1  0
 19 20  1  0
 15 21  1  0
 21 22  2  0
 22 23  1  0
 23 24  1  0
 23  1  1  0
 22  3  1  0
 12  6  1  0
  1 25  1  0
  2 26  1  0
  7 27  1  0
  8 28  1  0
 11 29  1  0
 14 30  1  0
 17 31  1  0
 17 32  1  0
 18 33  1  0
 18 34  1  0
 19 35  1  0
 19 36  1  0
 20 37  1  0
 20 38  1  0
 20 39  1  0
 24 40  1  0
 24 41  1  0
 24 42  1  0
M  END
>  <ScrubInfo>  (8) 
{"isomerGroup": 0, "isomerId": 7, "confId": 0, "nr_conformers:": 1, "nr_isomers:": 9}

$$$$
_i8
     RDKit          3D

 42 44  0  0  0  0  0  0  0  0999 V2000
    0.8791   -2.2952    0.1843 N   0  0  0  0  0  0  0  0  0  0  0  0
    0.7600   -0.9545    0.4986 C   0  0  0  0  0  0  0  0  0  0  0  0
    1.7552   -0.3791    1.0824 N   0  0  0  0  0  0  0  0  0  0  0  0
    1.6806    1.0293    1.4580 C   0  0  0  0  0  0  0  0  0  0  0  0
    2.0666    1.9339    0.2875 C   0  0  0  0  0  0  0  0  0  0  0  0
    3.4700    1.6930   -0.2772 C   0  0  0  0  0  0  0  0  0  0  0  0
    4.5826    1.9493    0.7273 C   0  0  0  0  0  0  0  0  0  0  0  0
   -0.4527   -0.4007    0.1199 N   0  0  0  0  0  0  0  0  0  0  0  0
   -1.5453   -0.9750   -0.5078 C   0  0  0  0  0  0  0  0  0  0  0  0
   -2.6753   -0.4691   -0.8789 N   0  0  0  0  0  0  0  0  0  0  0  0
   -2.9212    0.8918   -0.6330 C   0  0  0  0  0  0  0  0  0  0  0  0
   -2.7596    1.7933   -1.6918 C   0  0  0  0  0  0  0  0  0  0  0  0
   -3.0029    3.1569   -1.5115 C   0  0  0  0  0  0  0  0  0  0  0  0
   -3.4218    3.6256   -0.2681 C   0  0  0  0  0  0  0  0  0  0  0  0
   -3.7160    5.3055   -0.0460 Cl  0  0  0  0  0  0  0  0  0  0  0  0
   -3.6030    2.7459    0.7959 C   0  0  0  0  0  0  0  0  0  0  0  0
   -3.3588    1.3828    0.6113 C   0  0  0  0  0  0  0  0  0  0  0  0
   -3.5860    0.3275    1.9610 Cl  0  0  0  0  0  0  0  0  0  0  0  0
   -1.3158   -2.3746   -0.7745 C   0  0  0  0  0  0  0  0  0  0  0  0
   -2.0562   -3.4107   -1.3619 C   0  0  0  0  0  0  0  0  0  0  0  0
   -1.3814   -4.5706   -1.3821 N   0  0  0  0  0  0  0  0  0  0  0  0
   -0.1982   -4.2685   -0.7920 N   0  0  0  0  0  0  0  0  0  0  0  0
    0.7885   -5.3071   -0.6380 C   0  0  0  0  0  0  0  0  0  0  0  0
   -0.1265   -2.9610   -0.4202 C   0  0  0  0  0  0  0  0  0  0  0  0
    1.7605   -2.7115    0.4611 H   0  0  0  0  0  0  0  0  0  0  0  0
    0.6857    1.2978    1.8326 H   0  0  0  0  0  0  0  0  0  0  0  0
    2.3576    1.1957    2.3028 H   0  0  0  0  0  0  0  0  0  0  0  0
    1.3445    1.8047   -0.5278 H   0  0  0  0  0  0  0  0  0  0  0  0
    1.9850    2.9788    0.6109 H   0  0  0  0  0  0  0  0  0  0  0  0
    3.5545    0.6702   -0.6618 H   0  0  0  0  0  0  0  0  0  0  0  0
    3.6152    2.3612   -1.1346 H   0  0  0  0  0  0  0  0  0  0  0  0
    4.5592    1.2236    1.5455 H   0  0  0  0  0  0  0  0  0  0  0  0
    5.5577    1.8632    0.2372 H   0  0  0  0  0  0  0  0  0  0  0  0
    4.5048    2.9549    1.1524 H   0  0  0  0  0  0  0  0  0  0  0  0
   -0.5591    0.5766    0.3276 H   0  0  0  0  0  0  0  0  0  0  0  0
   -2.4482    1.4250   -2.6672 H   0  0  0  0  0  0  0  0  0  0  0  0
   -2.8721    3.8424   -2.3454 H   0  0  0  0  0  0  0  0  0  0  0  0
   -3.9370    3.1170    1.7612 H   0  0  0  0  0  0  0  0  0  0  0  0
   -3.0555   -3.3719   -1.7764 H   0  0  0  0  0  0  0  0  0  0  0  0
    1.6728   -4.9123   -0.1340 H   0  0  0  0  0  0  0  0  0  0  0  0
    1.0607   -5.6728   -1.6313 H   0  0  0  0  0  0  0  0  0  0  0  0
    0.3515   -6.1115   -0.0409 H   0  0  0  0  0  0  0  0  0  0  0  0
  1  2  1  0
  2  3  2  3
  3  4  1  0
  4  5  1  0
  5  6  1  0
  6  7  1  0
  2  8  1  0
  8  9  1  0
  9 10  2  3
 10 11  1  0
 11 12  2  0
 12 13  1  0
 13 14  2  0
 14 15  1  0
 14 16  1  0
 16 17  2  0
 17 18  1  0
  9 19  1  0
 19 20  1  0
 20 21  2  0
 21 22  1  0
 22 23  1  0
 22 24  1  0
 24  1  1  0
 17 11  1  0
 24 19  2  0
  1 25  1  0
  4 26  1  0
  4 27  1  0
  5 28  1  0
  5 29  1  0
  6 30  1  0
  6 31  1  0
  7 32  1  0
  7 33  1  0
  7 34  1  0
  8 35  1  0
 12 36  1  0
 13 37  1  0
 16 38  1  0
 20 39  1  0
 23 40  1  0
 23 41  1  0
 23 42  1  0
M  END
>  <ScrubInfo>  (9) 
{"isomerGroup": 0, "isomerId": 8, "confId": 0, "nr_conformers:": 1, "nr_isomers:": 9}

$$$$
