REMARK SMILES CCCCNc1nc(Nc2ccc(Cl)cc2Cl)c2cnn(C)c2n1
REMARK SMILES IDX 5 1 4 3 3 4 2 5 1 6 6 7 7 8 24 9 8 10 23 11 18 12 21 13
REMARK SMILES IDX 19 14 20 15 22 16 9 17 10 19 11 20 16 21 12 22 15 23 13 24
REMARK SMILES IDX 17 25 14 26
REMARK H PARENT 5 2 9 18
ROOT
ATOM      1  N   UNL     1      -2.441   0.859  -0.521  1.00  0.00    -0.354 N 
ATOM      2  H   UNL     1      -2.695   1.781  -0.183  1.00  0.00     0.163 HD
ENDROOT
BRANCH   1   3
ATOM      3  C   UNL     1      -2.875  -0.250   0.311  1.00  0.00     0.116 C 
BRANCH   3   4
ATOM      4  C   UNL     1      -4.378  -0.125   0.570  1.00  0.00     0.021 C 
BRANCH   4   5
ATOM      5  C   UNL     1      -4.892  -1.274   1.436  1.00  0.00    -0.002 C 
ATOM      6  C   UNL     1      -6.385  -1.152   1.695  1.00  0.00     0.004 C 
ENDBRANCH   4   5
ENDBRANCH   3   4
ENDBRANCH   1   3
BRANCH   1   7
ATOM      7  C   UNL     1      -1.070   0.906  -0.751  1.00  0.00     0.226 A 
ATOM      8  N   UNL     1      -0.376  -0.241  -0.873  1.00  0.00    -0.195 NA
ATOM      9  N   UNL     1      -0.555   2.139  -0.824  1.00  0.00    -0.193 NA
ATOM     10  C   UNL     1       0.962  -0.215  -1.095  1.00  0.00     0.147 A 
ATOM     11  C   UNL     1       0.767   2.140  -1.051  1.00  0.00     0.165 A 
ATOM     12  C   UNL     1       1.581   1.033  -1.195  1.00  0.00     0.082 A 
ATOM     13  N   UNL     1       1.581   3.231  -1.189  1.00  0.00    -0.250 N 
ATOM     14  C   UNL     1       2.864   1.575  -1.415  1.00  0.00     0.149 A 
ATOM     15  N   UNL     1       2.877   2.913  -1.409  1.00  0.00    -0.179 NA
ATOM     16  C   UNL     1       1.193   4.618  -1.125  1.00  0.00     0.176 C 
BRANCH  10  17
ATOM     17  N   UNL     1       1.593  -1.476  -1.200  1.00  0.00    -0.338 N 
ATOM     18  H   UNL     1       0.887  -2.102  -0.804  1.00  0.00     0.168 HD
BRANCH  17  19
ATOM     19  C   UNL     1       2.864  -1.768  -0.649  1.00  0.00     0.059 A 
ATOM     20  C   UNL     1       3.972  -1.800  -1.507  1.00  0.00     0.029 A 
ATOM     21  C   UNL     1       3.068  -1.980   0.728  1.00  0.00     0.066 A 
ATOM     22  C   UNL     1       5.253  -2.042  -1.005  1.00  0.00     0.023 A 
ATOM     23  C   UNL     1       4.348  -2.222   1.232  1.00  0.00     0.043 A 
ATOM     24  C   UNL     1       5.434  -2.251   0.360  1.00  0.00     0.042 A 
ATOM     25  Cl  UNL     1       1.743  -1.970   1.838  1.00  0.00    -0.082 Cl
ATOM     26  Cl  UNL     1       7.012  -2.549   0.975  1.00  0.00    -0.084 Cl
ENDBRANCH  17  19
ENDBRANCH  10  17
ENDBRANCH   1   7
TORSDOF 6
