_i0
     RDKit          3D

 52 55  0  0  0  0  0  0  0  0999 V2000
   -5.6474    3.7363   -1.1141 C   0  0  0  0  0  0  0  0  0  0  0  0
   -4.2606    3.6147   -0.8261 O   0  0  0  0  0  0  0  0  0  0  0  0
   -3.7294    2.3539   -0.8359 C   0  0  0  0  0  0  0  0  0  0  0  0
   -2.3661    2.2986   -0.5514 C   0  0  0  0  0  0  0  0  0  0  0  0
   -1.6897    1.0761   -0.5263 C   0  0  0  0  0  0  0  0  0  0  0  0
   -2.3620   -0.1196   -0.7857 C   0  0  0  0  0  0  0  0  0  0  0  0
   -1.7391   -1.3768   -0.7718 N   0  0  0  0  0  0  0  0  0  0  0  0
   -0.4524   -1.8358   -0.5240 C   0  0  0  0  0  0  0  0  0  0  0  0
    0.5411   -1.0031   -0.1953 N   0  0  0  0  0  0  0  0  0  0  0  0
    1.7585   -1.5190    0.0463 C   0  0  0  0  0  0  0  0  0  0  0  0
    2.8130   -0.6446    0.3926 N   0  0  0  0  0  0  0  0  0  0  0  0
    2.4191    0.7555    0.5794 C   0  0  0  0  0  0  0  0  0  0  0  0
    3.6352    1.5595    1.0560 C   0  0  0  0  0  0  0  0  0  0  0  0
    3.3408    3.0391    1.2364 C   0  0  0  0  0  0  0  0  0  0  0  0
    4.3794    3.4321    2.2565 C   0  0  0  0  0  0  0  0  0  0  0  0
    4.4068    2.2187    3.1611 C   0  0  0  0  0  0  0  0  0  0  0  0
    4.0779    1.0817    2.3489 O   0  0  0  0  0  0  0  0  0  0  0  0
    2.0189   -2.8925   -0.0760 C   0  0  0  0  0  0  0  0  0  0  0  0
    3.2833   -3.5092    0.1135 C   0  0  0  0  0  0  0  0  0  0  0  0
    3.4346   -4.8870   -0.0228 C   0  0  0  0  0  0  0  0  0  0  0  0
    2.3314   -5.6615   -0.3518 C   0  0  0  0  0  0  0  0  0  0  0  0
    1.0897   -5.0501   -0.5477 C   0  0  0  0  0  0  0  0  0  0  0  0
    0.9155   -3.6764   -0.4194 C   0  0  0  0  0  0  0  0  0  0  0  0
   -0.2984   -3.1622   -0.6324 N   0  0  0  0  0  0  0  0  0  0  0  0
   -3.7472   -0.0591   -1.0746 C   0  0  0  0  0  0  0  0  0  0  0  0
   -4.3375   -1.2812   -1.3193 O   0  0  0  0  0  0  0  0  0  0  0  0
   -5.7269   -1.2889   -1.6186 C   0  0  0  0  0  0  0  0  0  0  0  0
   -4.4213    1.1708   -1.0983 C   0  0  0  0  0  0  0  0  0  0  0  0
   -6.2530    3.2127   -0.3671 H   0  0  0  0  0  0  0  0  0  0  0  0
   -5.9068    4.7984   -1.0674 H   0  0  0  0  0  0  0  0  0  0  0  0
   -5.8731    3.3828   -2.1256 H   0  0  0  0  0  0  0  0  0  0  0  0
   -1.8195    3.2159   -0.3469 H   0  0  0  0  0  0  0  0  0  0  0  0
   -0.6289    1.0821   -0.3027 H   0  0  0  0  0  0  0  0  0  0  0  0
   -2.3557   -2.1481   -0.9945 H   0  0  0  0  0  0  0  0  0  0  0  0
    3.2614   -0.9834    1.2443 H   0  0  0  0  0  0  0  0  0  0  0  0
    2.0513    1.1763   -0.3638 H   0  0  0  0  0  0  0  0  0  0  0  0
    1.6294    0.8191    1.3390 H   0  0  0  0  0  0  0  0  0  0  0  0
    4.4762    1.4217    0.3644 H   0  0  0  0  0  0  0  0  0  0  0  0
    3.4136    3.6033    0.3026 H   0  0  0  0  0  0  0  0  0  0  0  0
    2.3383    3.1928    1.6539 H   0  0  0  0  0  0  0  0  0  0  0  0
    5.3527    3.5561    1.7670 H   0  0  0  0  0  0  0  0  0  0  0  0
    4.1448    4.3568    2.7901 H   0  0  0  0  0  0  0  0  0  0  0  0
    3.6492    2.2945    3.9483 H   0  0  0  0  0  0  0  0  0  0  0  0
    5.3830    2.0665    3.6299 H   0  0  0  0  0  0  0  0  0  0  0  0
    4.1556   -2.9062    0.3558 H   0  0  0  0  0  0  0  0  0  0  0  0
    4.4077   -5.3485    0.1228 H   0  0  0  0  0  0  0  0  0  0  0  0
    2.4300   -6.7381   -0.4637 H   0  0  0  0  0  0  0  0  0  0  0  0
    0.2318   -5.6645   -0.8126 H   0  0  0  0  0  0  0  0  0  0  0  0
   -5.9359   -0.7322   -2.5380 H   0  0  0  0  0  0  0  0  0  0  0  0
   -6.0268   -2.3281   -1.7846 H   0  0  0  0  0  0  0  0  0  0  0  0
   -6.3140   -0.9043   -0.7782 H   0  0  0  0  0  0  0  0  0  0  0  0
   -5.4789    1.2046   -1.3198 H   0  0  0  0  0  0  0  0  0  0  0  0
  1  2  1  0
  2  3  1  0
  3  4  2  0
  4  5  1  0
  5  6  2  0
  6  7  1  0
  7  8  1  0
  8  9  2  0
  9 10  1  0
 10 11  1  0
 11 12  1  0
 12 13  1  0
 13 14  1  0
 14 15  1  0
 15 16  1  0
 16 17  1  0
 10 18  2  0
 18 19  1  0
 19 20  2  0
 20 21  1  0
 21 22  2  0
 22 23  1  0
 23 24  2  0
  6 25  1  0
 25 26  1  0
 26 27  1  0
 25 28  2  0
 28  3  1  0
 24  8  1  0
 17 13  1  0
 23 18  1  0
  1 29  1  0
  1 30  1  0
  1 31  1  0
  4 32  1  0
  5 33  1  0
  7 34  1  0
 11 35  1  0
 12 36  1  0
 12 37  1  0
 13 38  1  0
 14 39  1  0
 14 40  1  0
 15 41  1  0
 15 42  1  0
 16 43  1  0
 16 44  1  0
 19 45  1  0
 20 46  1  0
 21 47  1  0
 22 48  1  0
 27 49  1  0
 27 50  1  0
 27 51  1  0
 28 52  1  0
M  END
>  <ScrubInfo>  (1) 
{"isomerGroup": 0, "isomerId": 0, "confId": 0, "nr_conformers:": 1, "nr_isomers:": 6}

$$$$
_i1
     RDKit          3D

 52 55  0  0  0  0  0  0  0  0999 V2000
   -0.4582    0.0108   -0.9531 N   0  0  0  0  0  0  0  0  0  0  0  0
   -1.3736   -0.9295   -0.5572 C   0  0  0  0  0  0  0  0  0  0  0  0
   -2.7179   -0.7127   -0.8403 N   0  0  0  0  0  0  0  0  0  0  0  0
   -3.6556   -0.3431    0.2334 C   0  0  0  0  0  0  0  0  0  0  0  0
   -4.9904    0.0867   -0.3858 C   0  0  0  0  0  0  0  0  0  0  0  0
   -6.0347    0.4852    0.6417 C   0  0  0  0  0  0  0  0  0  0  0  0
   -6.9184    1.3994   -0.1695 C   0  0  0  0  0  0  0  0  0  0  0  0
   -5.9118    2.1337   -1.0310 C   0  0  0  0  0  0  0  0  0  0  0  0
   -4.7948    1.2513   -1.2211 O   0  0  0  0  0  0  0  0  0  0  0  0
   -0.9130   -2.0395    0.0673 C   0  0  0  0  0  0  0  0  0  0  0  0
   -1.7005   -3.1806    0.4914 C   0  0  0  0  0  0  0  0  0  0  0  0
   -1.1306   -4.2184    1.1196 C   0  0  0  0  0  0  0  0  0  0  0  0
    0.2860   -4.2419    1.3951 C   0  0  0  0  0  0  0  0  0  0  0  0
    1.1050   -3.2522    1.0141 C   0  0  0  0  0  0  0  0  0  0  0  0
    0.5801   -2.0571    0.2921 C   0  0  0  0  0  0  0  0  0  0  0  0
    1.4208   -1.1392   -0.0746 N   0  0  0  0  0  0  0  0  0  0  0  0
    0.8856   -0.0633   -0.7352 C   0  0  0  0  0  0  0  0  0  0  0  0
    1.6394    0.9137   -1.1508 N   0  0  0  0  0  0  0  0  0  0  0  0
    3.0329    0.8488   -0.9594 C   0  0  0  0  0  0  0  0  0  0  0  0
    3.7918   -0.0069   -1.7702 C   0  0  0  0  0  0  0  0  0  0  0  0
    5.1854   -0.0440   -1.6742 C   0  0  0  0  0  0  0  0  0  0  0  0
    5.8560    0.7950   -0.7848 C   0  0  0  0  0  0  0  0  0  0  0  0
    7.2184    0.6699   -0.7933 O   0  0  0  0  0  0  0  0  0  0  0  0
    7.9453    1.5229    0.0821 C   0  0  0  0  0  0  0  0  0  0  0  0
    5.1167    1.6691    0.0106 C   0  0  0  0  0  0  0  0  0  0  0  0
    3.7148    1.6888   -0.0616 C   0  0  0  0  0  0  0  0  0  0  0  0
    3.1211    2.6295    0.7456 O   0  0  0  0  0  0  0  0  0  0  0  0
    2.0490    2.1168    1.5300 C   0  0  0  0  0  0  0  0  0  0  0  0
   -0.7841    0.8387   -1.4248 H   0  0  0  0  0  0  0  0  0  0  0  0
   -2.8049   -0.0039   -1.5730 H   0  0  0  0  0  0  0  0  0  0  0  0
   -3.8117   -1.1852    0.9147 H   0  0  0  0  0  0  0  0  0  0  0  0
   -3.2272    0.4914    0.8024 H   0  0  0  0  0  0  0  0  0  0  0  0
   -5.3792   -0.7079   -1.0353 H   0  0  0  0  0  0  0  0  0  0  0  0
   -5.5809    1.0480    1.4665 H   0  0  0  0  0  0  0  0  0  0  0  0
   -6.5668   -0.3728    1.0618 H   0  0  0  0  0  0  0  0  0  0  0  0
   -7.5309    2.0712    0.4371 H   0  0  0  0  0  0  0  0  0  0  0  0
   -7.5876    0.8041   -0.8020 H   0  0  0  0  0  0  0  0  0  0  0  0
   -6.3226    2.4209   -2.0028 H   0  0  0  0  0  0  0  0  0  0  0  0
   -5.5414    3.0334   -0.5289 H   0  0  0  0  0  0  0  0  0  0  0  0
   -2.7614   -3.1920    0.2664 H   0  0  0  0  0  0  0  0  0  0  0  0
   -1.7229   -5.0765    1.4231 H   0  0  0  0  0  0  0  0  0  0  0  0
    0.6827   -5.1077    1.9179 H   0  0  0  0  0  0  0  0  0  0  0  0
    2.1708   -3.2754    1.2088 H   0  0  0  0  0  0  0  0  0  0  0  0
    3.2876   -0.6491   -2.4867 H   0  0  0  0  0  0  0  0  0  0  0  0
    5.7493   -0.7232   -2.3078 H   0  0  0  0  0  0  0  0  0  0  0  0
    7.6888    1.3264    1.1282 H   0  0  0  0  0  0  0  0  0  0  0  0
    7.7893    2.5764   -0.1734 H   0  0  0  0  0  0  0  0  0  0  0  0
    9.0097    1.3036   -0.0456 H   0  0  0  0  0  0  0  0  0  0  0  0
    5.5949    2.3512    0.7046 H   0  0  0  0  0  0  0  0  0  0  0  0
    1.0974    2.2703    1.0150 H   0  0  0  0  0  0  0  0  0  0  0  0
    2.0137    2.6990    2.4561 H   0  0  0  0  0  0  0  0  0  0  0  0
    2.1885    1.0660    1.8101 H   0  0  0  0  0  0  0  0  0  0  0  0
  1  2  1  0
  2  3  1  0
  3  4  1  0
  4  5  1  0
  5  6  1  0
  6  7  1  0
  7  8  1  0
  8  9  1  0
  2 10  2  0
 10 11  1  0
 11 12  2  0
 12 13  1  0
 13 14  2  0
 14 15  1  0
 15 16  2  0
 16 17  1  0
 17 18  2  3
 18 19  1  0
 19 20  2  0
 20 21  1  0
 21 22  2  0
 22 23  1  0
 23 24  1  0
 22 25  1  0
 25 26  2  0
 26 27  1  0
 27 28  1  0
 17  1  1  0
 26 19  1  0
  9  5  1  0
 15 10  1  0
  1 29  1  0
  3 30  1  0
  4 31  1  0
  4 32  1  0
  5 33  1  0
  6 34  1  0
  6 35  1  0
  7 36  1  0
  7 37  1  0
  8 38  1  0
  8 39  1  0
 11 40  1  0
 12 41  1  0
 13 42  1  0
 14 43  1  0
 20 44  1  0
 21 45  1  0
 24 46  1  0
 24 47  1  0
 24 48  1  0
 25 49  1  0
 28 50  1  0
 28 51  1  0
 28 52  1  0
M  END
>  <ScrubInfo>  (2) 
{"isomerGroup": 0, "isomerId": 1, "confId": 0, "nr_conformers:": 1, "nr_isomers:": 6}

$$$$
_i2
     RDKit          3D

 52 55  0  0  0  0  0  0  0  0999 V2000
    0.7173   -0.3528    0.0405 N   0  0  0  0  0  0  0  0  0  0  0  0
   -0.5094   -0.5049    0.6362 C   0  0  0  0  0  0  0  0  0  0  0  0
   -1.5363   -0.2044   -0.2206 N   0  0  0  0  0  0  0  0  0  0  0  0
   -2.9307   -0.2834    0.0136 C   0  0  0  0  0  0  0  0  0  0  0  0
   -3.5027   -1.1174    0.9762 C   0  0  0  0  0  0  0  0  0  0  0  0
   -4.8897   -1.1760    1.1332 C   0  0  0  0  0  0  0  0  0  0  0  0
   -5.7331   -0.4137    0.3254 C   0  0  0  0  0  0  0  0  0  0  0  0
   -7.0661   -0.5706    0.5903 O   0  0  0  0  0  0  0  0  0  0  0  0
   -7.9779    0.1974   -0.1838 C   0  0  0  0  0  0  0  0  0  0  0  0
   -5.1807    0.4114   -0.6558 C   0  0  0  0  0  0  0  0  0  0  0  0
   -3.7898    0.4746   -0.8187 C   0  0  0  0  0  0  0  0  0  0  0  0
   -3.1388    1.2500   -1.7560 O   0  0  0  0  0  0  0  0  0  0  0  0
   -3.9487    2.0356   -2.6225 C   0  0  0  0  0  0  0  0  0  0  0  0
   -0.6307   -0.8896    1.8735 N   0  0  0  0  0  0  0  0  0  0  0  0
    0.5532   -1.1407    2.6026 C   0  0  0  0  0  0  0  0  0  0  0  0
    0.4326   -1.5373    3.9370 C   0  0  0  0  0  0  0  0  0  0  0  0
    1.5674   -1.8002    4.7106 C   0  0  0  0  0  0  0  0  0  0  0  0
    2.8408   -1.6691    4.1556 C   0  0  0  0  0  0  0  0  0  0  0  0
    2.9836   -1.2743    2.8258 C   0  0  0  0  0  0  0  0  0  0  0  0
    1.8434   -1.0118    2.0581 C   0  0  0  0  0  0  0  0  0  0  0  0
    1.9349   -0.5901    0.6310 C   0  0  0  0  0  0  0  0  0  0  0  0
    3.1026   -0.4923    0.0888 N   0  0  0  0  0  0  0  0  0  0  0  0
    3.1920   -0.0688   -1.3072 C   0  0  0  0  0  0  0  0  0  0  0  0
    4.6576    0.0048   -1.7361 C   0  0  0  0  0  0  0  0  0  0  0  0
    5.4764    1.0332   -0.9713 C   0  0  0  0  0  0  0  0  0  0  0  0
    6.5802    1.3292   -1.9548 C   0  0  0  0  0  0  0  0  0  0  0  0
    5.8408    1.2992   -3.2753 C   0  0  0  0  0  0  0  0  0  0  0  0
    4.7435    0.3857   -3.1254 O   0  0  0  0  0  0  0  0  0  0  0  0
    0.7178   -0.1980   -0.9531 H   0  0  0  0  0  0  0  0  0  0  0  0
   -1.3516    0.5053   -0.9219 H   0  0  0  0  0  0  0  0  0  0  0  0
   -2.8849   -1.7433    1.6135 H   0  0  0  0  0  0  0  0  0  0  0  0
   -5.3131   -1.8283    1.8935 H   0  0  0  0  0  0  0  0  0  0  0  0
   -8.9895   -0.0350    0.1627 H   0  0  0  0  0  0  0  0  0  0  0  0
   -7.8142    1.2703   -0.0379 H   0  0  0  0  0  0  0  0  0  0  0  0
   -7.9191   -0.0716   -1.2436 H   0  0  0  0  0  0  0  0  0  0  0  0
   -5.8295    0.9991   -1.2903 H   0  0  0  0  0  0  0  0  0  0  0  0
   -3.2823    2.5801   -3.2984 H   0  0  0  0  0  0  0  0  0  0  0  0
   -4.5269    2.7753   -2.0592 H   0  0  0  0  0  0  0  0  0  0  0  0
   -4.5995    1.4036   -3.2355 H   0  0  0  0  0  0  0  0  0  0  0  0
   -0.5574   -1.6403    4.3738 H   0  0  0  0  0  0  0  0  0  0  0  0
    1.4544   -2.1079    5.7471 H   0  0  0  0  0  0  0  0  0  0  0  0
    3.7216   -1.8751    4.7586 H   0  0  0  0  0  0  0  0  0  0  0  0
    3.9747   -1.1731    2.3921 H   0  0  0  0  0  0  0  0  0  0  0  0
    2.7195    0.9108   -1.4535 H   0  0  0  0  0  0  0  0  0  0  0  0
    2.6722   -0.7798   -1.9617 H   0  0  0  0  0  0  0  0  0  0  0  0
    5.1229   -0.9850   -1.6441 H   0  0  0  0  0  0  0  0  0  0  0  0
    5.8423    0.6594   -0.0109 H   0  0  0  0  0  0  0  0  0  0  0  0
    4.8926    1.9434   -0.7880 H   0  0  0  0  0  0  0  0  0  0  0  0
    7.3283    0.5281   -1.9266 H   0  0  0  0  0  0  0  0  0  0  0  0
    7.0898    2.2788   -1.7726 H   0  0  0  0  0  0  0  0  0  0  0  0
    5.4230    2.2822   -3.5173 H   0  0  0  0  0  0  0  0  0  0  0  0
    6.4769    0.9776   -4.1047 H   0  0  0  0  0  0  0  0  0  0  0  0
  1  2  1  0
  2  3  1  0
  3  4  1  0
  4  5  2  0
  5  6  1  0
  6  7  2  0
  7  8  1  0
  8  9  1  0
  7 10  1  0
 10 11  2  0
 11 12  1  0
 12 13  1  0
  2 14  2  0
 14 15  1  0
 15 16  2  0
 16 17  1  0
 17 18  2  0
 18 19  1  0
 19 20  2  0
 20 21  1  0
 21 22  2  3
 22 23  1  0
 23 24  1  0
 24 25  1  0
 25 26  1  0
 26 27  1  0
 27 28  1  0
 21  1  1  0
 28 24  1  0
 11  4  1  0
 20 15  1  0
  1 29  1  0
  3 30  1  0
  5 31  1  0
  6 32  1  0
  9 33  1  0
  9 34  1  0
  9 35  1  0
 10 36  1  0
 13 37  1  0
 13 38  1  0
 13 39  1  0
 16 40  1  0
 17 41  1  0
 18 42  1  0
 19 43  1  0
 23 44  1  0
 23 45  1  0
 24 46  1  0
 25 47  1  0
 25 48  1  0
 26 49  1  0
 26 50  1  0
 27 51  1  0
 27 52  1  0
M  END
>  <ScrubInfo>  (3) 
{"isomerGroup": 0, "isomerId": 2, "confId": 0, "nr_conformers:": 1, "nr_isomers:": 6}

$$$$
_i3
     RDKit          3D

 52 55  0  0  0  0  0  0  0  0999 V2000
   -0.7543   -1.5923    0.0851 N   0  0  0  0  0  0  0  0  0  0  0  0
   -0.5124   -0.4299    0.7659 C   0  0  0  0  0  0  0  0  0  0  0  0
   -1.3948    0.4787    1.0548 N   0  0  0  0  0  0  0  0  0  0  0  0
   -2.7298    0.2956    0.6652 C   0  0  0  0  0  0  0  0  0  0  0  0
   -3.6329   -0.1889    1.6155 C   0  0  0  0  0  0  0  0  0  0  0  0
   -4.9632   -0.4405    1.2725 C   0  0  0  0  0  0  0  0  0  0  0  0
   -5.4169   -0.2086   -0.0267 C   0  0  0  0  0  0  0  0  0  0  0  0
   -6.7341   -0.5108   -0.2350 O   0  0  0  0  0  0  0  0  0  0  0  0
   -7.2629   -0.2242   -1.5239 C   0  0  0  0  0  0  0  0  0  0  0  0
   -4.5287    0.2906   -0.9789 C   0  0  0  0  0  0  0  0  0  0  0  0
   -3.1994    0.5691   -0.6320 C   0  0  0  0  0  0  0  0  0  0  0  0
   -2.4227    1.0382   -1.6635 O   0  0  0  0  0  0  0  0  0  0  0  0
   -1.6132    2.1605   -1.3091 C   0  0  0  0  0  0  0  0  0  0  0  0
    0.7478   -0.1102    1.2040 N   0  0  0  0  0  0  0  0  0  0  0  0
    1.7562   -0.8931    0.9438 C   0  0  0  0  0  0  0  0  0  0  0  0
    3.0210   -0.5234    1.3634 N   0  0  0  0  0  0  0  0  0  0  0  0
    3.3036    0.7622    1.9923 C   0  0  0  0  0  0  0  0  0  0  0  0
    3.1826    1.9621    1.0341 C   0  0  0  0  0  0  0  0  0  0  0  0
    4.0294    1.8482   -0.2303 C   0  0  0  0  0  0  0  0  0  0  0  0
    5.3187    2.5219    0.1653 C   0  0  0  0  0  0  0  0  0  0  0  0
    4.8194    3.6433    1.0453 C   0  0  0  0  0  0  0  0  0  0  0  0
    3.6628    3.1420    1.7253 O   0  0  0  0  0  0  0  0  0  0  0  0
    1.5791   -2.1786    0.1911 C   0  0  0  0  0  0  0  0  0  0  0  0
    2.6227   -3.0749   -0.0669 C   0  0  0  0  0  0  0  0  0  0  0  0
    2.3677   -4.2500   -0.7771 C   0  0  0  0  0  0  0  0  0  0  0  0
    1.0764   -4.5344   -1.2182 C   0  0  0  0  0  0  0  0  0  0  0  0
    0.0334   -3.6476   -0.9460 C   0  0  0  0  0  0  0  0  0  0  0  0
    0.2798   -2.4629   -0.2455 C   0  0  0  0  0  0  0  0  0  0  0  0
   -1.6633   -1.7271   -0.3255 H   0  0  0  0  0  0  0  0  0  0  0  0
   -3.2900   -0.3796    2.6296 H   0  0  0  0  0  0  0  0  0  0  0  0
   -5.6488   -0.8223    2.0252 H   0  0  0  0  0  0  0  0  0  0  0  0
   -8.3241   -0.4908   -1.5166 H   0  0  0  0  0  0  0  0  0  0  0  0
   -7.1895    0.8441   -1.7535 H   0  0  0  0  0  0  0  0  0  0  0  0
   -6.7729   -0.8294   -2.2937 H   0  0  0  0  0  0  0  0  0  0  0  0
   -4.8376    0.4875   -1.9999 H   0  0  0  0  0  0  0  0  0  0  0  0
   -0.6086    1.8312   -1.0306 H   0  0  0  0  0  0  0  0  0  0  0  0
   -2.0593    2.7781   -0.5211 H   0  0  0  0  0  0  0  0  0  0  0  0
   -1.5145    2.7874   -2.2009 H   0  0  0  0  0  0  0  0  0  0  0  0
    3.8195   -0.9431    0.9091 H   0  0  0  0  0  0  0  0  0  0  0  0
    2.6473    0.9150    2.8582 H   0  0  0  0  0  0  0  0  0  0  0  0
    4.3172    0.7254    2.4103 H   0  0  0  0  0  0  0  0  0  0  0  0
    2.1327    2.1287    0.7719 H   0  0  0  0  0  0  0  0  0  0  0  0
    4.1686    0.8299   -0.6010 H   0  0  0  0  0  0  0  0  0  0  0  0
    3.5559    2.4265   -1.0339 H   0  0  0  0  0  0  0  0  0  0  0  0
    5.9375    1.8303    0.7485 H   0  0  0  0  0  0  0  0  0  0  0  0
    5.9069    2.8769   -0.6847 H   0  0  0  0  0  0  0  0  0  0  0  0
    5.5647    3.9699    1.7758 H   0  0  0  0  0  0  0  0  0  0  0  0
    4.5103    4.5089    0.4496 H   0  0  0  0  0  0  0  0  0  0  0  0
    3.6311   -2.8937    0.2862 H   0  0  0  0  0  0  0  0  0  0  0  0
    3.1754   -4.9503   -0.9780 H   0  0  0  0  0  0  0  0  0  0  0  0
    0.8783   -5.4539   -1.7641 H   0  0  0  0  0  0  0  0  0  0  0  0
   -0.9720   -3.8919   -1.2793 H   0  0  0  0  0  0  0  0  0  0  0  0
  1  2  1  0
  2  3  2  3
  3  4  1  0
  4  5  2  0
  5  6  1  0
  6  7  2  0
  7  8  1  0
  8  9  1  0
  7 10  1  0
 10 11  2  0
 11 12  1  0
 12 13  1  0
  2 14  1  0
 14 15  2  0
 15 16  1  0
 16 17  1  0
 17 18  1  0
 18 19  1  0
 19 20  1  0
 20 21  1  0
 21 22  1  0
 15 23  1  0
 23 24  2  0
 24 25  1  0
 25 26  2  0
 26 27  1  0
 27 28  2  0
 28  1  1  0
 11  4  1  0
 22 18  1  0
 28 23  1  0
  1 29  1  0
  5 30  1  0
  6 31  1  0
  9 32  1  0
  9 33  1  0
  9 34  1  0
 10 35  1  0
 13 36  1  0
 13 37  1  0
 13 38  1  0
 16 39  1  0
 17 40  1  0
 17 41  1  0
 18 42  1  0
 19 43  1  0
 19 44  1  0
 20 45  1  0
 20 46  1  0
 21 47  1  0
 21 48  1  0
 24 49  1  0
 25 50  1  0
 26 51  1  0
 27 52  1  0
M  END
>  <ScrubInfo>  (4) 
{"isomerGroup": 0, "isomerId": 3, "confId": 0, "nr_conformers:": 1, "nr_isomers:": 6}

$$$$
_i4
     RDKit          3D

 52 55  0  0  0  0  0  0  0  0999 V2000
    0.3971   -2.7325    0.0266 N   0  0  0  0  0  0  0  0  0  0  0  0
   -0.2726   -1.5492    0.2396 C   0  0  0  0  0  0  0  0  0  0  0  0
   -1.4850   -1.7894    0.8364 N   0  0  0  0  0  0  0  0  0  0  0  0
   -2.4642   -0.8554    1.2554 C   0  0  0  0  0  0  0  0  0  0  0  0
   -2.1774    0.4763    1.5619 C   0  0  0  0  0  0  0  0  0  0  0  0
   -3.1815    1.3350    2.0164 C   0  0  0  0  0  0  0  0  0  0  0  0
   -4.4880    0.8793    2.1882 C   0  0  0  0  0  0  0  0  0  0  0  0
   -5.3652    1.8270    2.6401 O   0  0  0  0  0  0  0  0  0  0  0  0
   -6.7248    1.4384    2.7839 C   0  0  0  0  0  0  0  0  0  0  0  0
   -4.7903   -0.4544    1.9080 C   0  0  0  0  0  0  0  0  0  0  0  0
   -3.7876   -1.3210    1.4500 C   0  0  0  0  0  0  0  0  0  0  0  0
   -3.9750   -2.6547    1.1493 O   0  0  0  0  0  0  0  0  0  0  0  0
   -5.2959   -3.1675    1.2745 C   0  0  0  0  0  0  0  0  0  0  0  0
    0.1980   -0.3828   -0.0706 N   0  0  0  0  0  0  0  0  0  0  0  0
    1.3962   -0.3076   -0.7447 C   0  0  0  0  0  0  0  0  0  0  0  0
    1.4995    0.7545   -1.4565 N   0  0  0  0  0  0  0  0  0  0  0  0
    2.5571    1.0598   -2.3984 C   0  0  0  0  0  0  0  0  0  0  0  0
    3.4661    2.1545   -1.8384 C   0  0  0  0  0  0  0  0  0  0  0  0
    2.8204    3.5317   -1.7970 C   0  0  0  0  0  0  0  0  0  0  0  0
    4.0281    4.4324   -1.8558 C   0  0  0  0  0  0  0  0  0  0  0  0
    4.9266    3.6860   -2.8183 C   0  0  0  0  0  0  0  0  0  0  0  0
    4.6494    2.2872   -2.6534 O   0  0  0  0  0  0  0  0  0  0  0  0
    2.3560   -1.4402   -0.5856 C   0  0  0  0  0  0  0  0  0  0  0  0
    3.7424   -1.3472   -0.7344 C   0  0  0  0  0  0  0  0  0  0  0  0
    4.5405   -2.4868   -0.6038 C   0  0  0  0  0  0  0  0  0  0  0  0
    3.9594   -3.7188   -0.3124 C   0  0  0  0  0  0  0  0  0  0  0  0
    2.5820   -3.8085   -0.1131 C   0  0  0  0  0  0  0  0  0  0  0  0
    1.7831   -2.6627   -0.2036 C   0  0  0  0  0  0  0  0  0  0  0  0
    0.1211   -3.4990    0.6249 H   0  0  0  0  0  0  0  0  0  0  0  0
   -1.9398   -2.6566    0.5698 H   0  0  0  0  0  0  0  0  0  0  0  0
   -1.1712    0.8721    1.4568 H   0  0  0  0  0  0  0  0  0  0  0  0
   -2.9353    2.3708    2.2387 H   0  0  0  0  0  0  0  0  0  0  0  0
   -6.8329    0.6585    3.5448 H   0  0  0  0  0  0  0  0  0  0  0  0
   -7.2888    2.3131    3.1218 H   0  0  0  0  0  0  0  0  0  0  0  0
   -7.1485    1.1186    1.8261 H   0  0  0  0  0  0  0  0  0  0  0  0
   -5.7988   -0.8169    2.0498 H   0  0  0  0  0  0  0  0  0  0  0  0
   -5.2733   -4.2212    0.9800 H   0  0  0  0  0  0  0  0  0  0  0  0
   -5.6400   -3.1205    2.3128 H   0  0  0  0  0  0  0  0  0  0  0  0
   -5.9870   -2.6494    0.6014 H   0  0  0  0  0  0  0  0  0  0  0  0
    3.1295    0.1854   -2.7198 H   0  0  0  0  0  0  0  0  0  0  0  0
    2.0974    1.4161   -3.3291 H   0  0  0  0  0  0  0  0  0  0  0  0
    3.8096    1.8848   -0.8320 H   0  0  0  0  0  0  0  0  0  0  0  0
    2.2067    3.6874   -0.9054 H   0  0  0  0  0  0  0  0  0  0  0  0
    2.1931    3.7015   -2.6803 H   0  0  0  0  0  0  0  0  0  0  0  0
    3.8029    5.4504   -2.1841 H   0  0  0  0  0  0  0  0  0  0  0  0
    4.5001    4.4862   -0.8676 H   0  0  0  0  0  0  0  0  0  0  0  0
    4.7000    3.9495   -3.8569 H   0  0  0  0  0  0  0  0  0  0  0  0
    5.9879    3.8751   -2.6343 H   0  0  0  0  0  0  0  0  0  0  0  0
    4.2301   -0.4012   -0.9371 H   0  0  0  0  0  0  0  0  0  0  0  0
    5.6178   -2.4098   -0.7346 H   0  0  0  0  0  0  0  0  0  0  0  0
    4.5818   -4.6062   -0.2264 H   0  0  0  0  0  0  0  0  0  0  0  0
    2.1433   -4.7725    0.1297 H   0  0  0  0  0  0  0  0  0  0  0  0
  1  2  1  0
  2  3  1  0
  3  4  1  0
  4  5  2  0
  5  6  1  0
  6  7  2  0
  7  8  1  0
  8  9  1  0
  7 10  1  0
 10 11  2  0
 11 12  1  0
 12 13  1  0
  2 14  2  0
 14 15  1  0
 15 16  2  3
 16 17  1  0
 17 18  1  0
 18 19  1  0
 19 20  1  0
 20 21  1  0
 21 22  1  0
 15 23  1  0
 23 24  2  0
 24 25  1  0
 25 26  2  0
 26 27  1  0
 27 28  2  0
 28  1  1  0
 11  4  1  0
 22 18  1  0
 28 23  1  0
  1 29  1  0
  3 30  1  0
  5 31  1  0
  6 32  1  0
  9 33  1  0
  9 34  1  0
  9 35  1  0
 10 36  1  0
 13 37  1  0
 13 38  1  0
 13 39  1  0
 17 40  1  0
 17 41  1  0
 18 42  1  0
 19 43  1  0
 19 44  1  0
 20 45  1  0
 20 46  1  0
 21 47  1  0
 21 48  1  0
 24 49  1  0
 25 50  1  0
 26 51  1  0
 27 52  1  0
M  END
>  <ScrubInfo>  (5) 
{"isomerGroup": 0, "isomerId": 4, "confId": 0, "nr_conformers:": 1, "nr_isomers:": 6}

$$$$
_i5
     RDKit          3D

 52 55  0  0  0  0  0  0  0  0999 V2000
    0.4905    1.6721    0.1823 N   0  0  0  0  0  0  0  0  0  0  0  0
    0.3552    0.3146    0.3550 C   0  0  0  0  0  0  0  0  0  0  0  0
    1.0722   -0.6254   -0.1936 N   0  0  0  0  0  0  0  0  0  0  0  0
    2.1222   -0.2700   -1.0562 C   0  0  0  0  0  0  0  0  0  0  0  0
    3.4289   -0.3515   -0.5631 C   0  0  0  0  0  0  0  0  0  0  0  0
    4.5240    0.0288   -1.3470 C   0  0  0  0  0  0  0  0  0  0  0  0
    4.3232    0.4995   -2.6431 C   0  0  0  0  0  0  0  0  0  0  0  0
    5.2973    0.9180   -3.5066 O   0  0  0  0  0  0  0  0  0  0  0  0
    6.6415    0.8370   -3.0494 C   0  0  0  0  0  0  0  0  0  0  0  0
    3.0233    0.5692   -3.1496 C   0  0  0  0  0  0  0  0  0  0  0  0
    1.9294    0.1617   -2.3792 C   0  0  0  0  0  0  0  0  0  0  0  0
    0.7062    0.2997   -2.9858 O   0  0  0  0  0  0  0  0  0  0  0  0
   -0.1186   -0.8603   -2.8752 C   0  0  0  0  0  0  0  0  0  0  0  0
   -0.6643   -0.0391    1.1964 N   0  0  0  0  0  0  0  0  0  0  0  0
   -1.6077    0.7479    1.8108 C   0  0  0  0  0  0  0  0  0  0  0  0
   -2.5624    0.3657    2.5924 N   0  0  0  0  0  0  0  0  0  0  0  0
   -2.6713   -1.0460    2.9851 C   0  0  0  0  0  0  0  0  0  0  0  0
   -3.1836   -1.9285    1.8439 C   0  0  0  0  0  0  0  0  0  0  0  0
   -3.8091   -3.2261    2.3291 C   0  0  0  0  0  0  0  0  0  0  0  0
   -3.6508   -4.1101    1.1178 C   0  0  0  0  0  0  0  0  0  0  0  0
   -2.2875   -3.7000    0.6041 C   0  0  0  0  0  0  0  0  0  0  0  0
   -2.0820   -2.3339    0.9969 O   0  0  0  0  0  0  0  0  0  0  0  0
   -1.4885    2.2094    1.5146 C   0  0  0  0  0  0  0  0  0  0  0  0
   -2.3847    3.1453    2.0412 C   0  0  0  0  0  0  0  0  0  0  0  0
   -2.2220    4.4979    1.7440 C   0  0  0  0  0  0  0  0  0  0  0  0
   -1.1665    4.9108    0.9304 C   0  0  0  0  0  0  0  0  0  0  0  0
   -0.2711    3.9733    0.4063 C   0  0  0  0  0  0  0  0  0  0  0  0
   -0.4296    2.6102    0.6808 C   0  0  0  0  0  0  0  0  0  0  0  0
    1.1325    1.9922   -0.5283 H   0  0  0  0  0  0  0  0  0  0  0  0
    3.5909   -0.7061    0.4522 H   0  0  0  0  0  0  0  0  0  0  0  0
    5.5137   -0.0496   -0.9099 H   0  0  0  0  0  0  0  0  0  0  0  0
    6.8021    1.4839   -2.1807 H   0  0  0  0  0  0  0  0  0  0  0  0
    6.9224   -0.1983   -2.8296 H   0  0  0  0  0  0  0  0  0  0  0  0
    7.2905    1.1941   -3.8548 H   0  0  0  0  0  0  0  0  0  0  0  0
    2.8598    0.9325   -4.1612 H   0  0  0  0  0  0  0  0  0  0  0  0
   -0.7244   -0.9206   -3.7848 H   0  0  0  0  0  0  0  0  0  0  0  0
   -0.8065   -0.7585   -2.0316 H   0  0  0  0  0  0  0  0  0  0  0  0
    0.4576   -1.7898   -2.8004 H   0  0  0  0  0  0  0  0  0  0  0  0
   -0.8318   -1.0422    1.2186 H   0  0  0  0  0  0  0  0  0  0  0  0
   -3.3826   -1.0804    3.8183 H   0  0  0  0  0  0  0  0  0  0  0  0
   -1.7101   -1.4081    3.3703 H   0  0  0  0  0  0  0  0  0  0  0  0
   -3.8938   -1.3789    1.2135 H   0  0  0  0  0  0  0  0  0  0  0  0
   -3.2406   -3.6457    3.1681 H   0  0  0  0  0  0  0  0  0  0  0  0
   -4.8492   -3.1044    2.6438 H   0  0  0  0  0  0  0  0  0  0  0  0
   -4.4196   -3.8656    0.3752 H   0  0  0  0  0  0  0  0  0  0  0  0
   -3.7191   -5.1782    1.3398 H   0  0  0  0  0  0  0  0  0  0  0  0
   -1.4937   -4.2988    1.0626 H   0  0  0  0  0  0  0  0  0  0  0  0
   -2.2055   -3.7859   -0.4830 H   0  0  0  0  0  0  0  0  0  0  0  0
   -3.2020    2.8236    2.6813 H   0  0  0  0  0  0  0  0  0  0  0  0
   -2.9155    5.2294    2.1513 H   0  0  0  0  0  0  0  0  0  0  0  0
   -1.0377    5.9669    0.7056 H   0  0  0  0  0  0  0  0  0  0  0  0
    0.5484    4.3180   -0.2190 H   0  0  0  0  0  0  0  0  0  0  0  0
  1  2  1  0
  2  3  2  3
  3  4  1  0
  4  5  2  0
  5  6  1  0
  6  7  2  0
  7  8  1  0
  8  9  1  0
  7 10  1  0
 10 11  2  0
 11 12  1  0
 12 13  1  0
  2 14  1  0
 14 15  1  0
 15 16  2  3
 16 17  1  0
 17 18  1  0
 18 19  1  0
 19 20  1  0
 20 21  1  0
 21 22  1  0
 15 23  1  0
 23 24  2  0
 24 25  1  0
 25 26  2  0
 26 27  1  0
 27 28  2  0
 28  1  1  0
 11  4  1  0
 22 18  1  0
 28 23  1  0
  1 29  1  0
  5 30  1  0
  6 31  1  0
  9 32  1  0
  9 33  1  0
  9 34  1  0
 10 35  1  0
 13 36  1  0
 13 37  1  0
 13 38  1  0
 14 39  1  0
 17 40  1  0
 17 41  1  0
 18 42  1  0
 19 43  1  0
 19 44  1  0
 20 45  1  0
 20 46  1  0
 21 47  1  0
 21 48  1  0
 24 49  1  0
 25 50  1  0
 26 51  1  0
 27 52  1  0
M  END
>  <ScrubInfo>  (6) 
{"isomerGroup": 0, "isomerId": 5, "confId": 0, "nr_conformers:": 1, "nr_isomers:": 6}

$$$$
