REMARK SMILES COc1ccc(Nc2nc(NC[C@H]3CCCO3)c3ccccc3n2)c(OC)c1
REMARK SMILES IDX 8 1 9 2 10 3 18 4 19 5 20 6 21 7 22 8 23 9 24 10 7 11 6 13
REMARK SMILES IDX 3 14 4 15 28 16 5 17 25 18 2 19 1 20 26 21 27 22 11 23 12 25
REMARK SMILES IDX 13 26 14 27 17 28 15 29 16 30
REMARK H PARENT 7 12 11 24
ROOT
ATOM      1  C   UNL     1      -0.452  -1.836  -0.524  1.00  0.00     0.229 A 
ATOM      2  N   UNL     1       0.541  -1.003  -0.195  1.00  0.00    -0.195 NA
ATOM      3  C   UNL     1       1.758  -1.519   0.046  1.00  0.00     0.139 A 
ATOM      4  C   UNL     1       2.019  -2.893  -0.076  1.00  0.00     0.043 A 
ATOM      5  C   UNL     1       3.283  -3.509   0.114  1.00  0.00     0.014 A 
ATOM      6  C   UNL     1       3.435  -4.887  -0.023  1.00  0.00     0.001 A 
ATOM      7  C   UNL     1       2.331  -5.662  -0.352  1.00  0.00     0.002 A 
ATOM      8  C   UNL     1       1.090  -5.050  -0.548  1.00  0.00     0.029 A 
ATOM      9  C   UNL     1       0.915  -3.676  -0.419  1.00  0.00     0.078 A 
ATOM     10  N   UNL     1      -0.298  -3.162  -0.632  1.00  0.00    -0.213 NA
ENDROOT
BRANCH   1  11
ATOM     11  N   UNL     1      -1.739  -1.377  -0.772  1.00  0.00    -0.321 N 
ATOM     12  H   UNL     1      -2.356  -2.148  -0.995  1.00  0.00     0.170 HD
BRANCH  11  13
ATOM     13  C   UNL     1      -2.362  -0.120  -0.786  1.00  0.00     0.084 A 
ATOM     14  C   UNL     1      -3.729   2.354  -0.836  1.00  0.00     0.122 A 
ATOM     15  C   UNL     1      -2.366   2.299  -0.551  1.00  0.00     0.049 A 
ATOM     16  C   UNL     1      -4.421   1.171  -1.098  1.00  0.00     0.095 A 
ATOM     17  C   UNL     1      -1.690   1.076  -0.526  1.00  0.00     0.034 A 
ATOM     18  C   UNL     1      -3.747  -0.059  -1.075  1.00  0.00     0.146 A 
BRANCH  14  19
ATOM     19  O   UNL     1      -4.261   3.615  -0.826  1.00  0.00    -0.497 OA
ATOM     20  C   UNL     1      -5.647   3.736  -1.114  1.00  0.00     0.278 C 
ENDBRANCH  14  19
BRANCH  18  21
ATOM     21  O   UNL     1      -4.338  -1.281  -1.319  1.00  0.00    -0.494 OA
ATOM     22  C   UNL     1      -5.727  -1.289  -1.619  1.00  0.00     0.278 C 
ENDBRANCH  18  21
ENDBRANCH  11  13
ENDBRANCH   1  11
BRANCH   3  23
ATOM     23  N   UNL     1       2.813  -0.645   0.393  1.00  0.00    -0.367 N 
ATOM     24  H   UNL     1       3.261  -0.983   1.244  1.00  0.00     0.162 HD
BRANCH  23  25
ATOM     25  C   UNL     1       2.419   0.755   0.579  1.00  0.00     0.146 C 
BRANCH  25  26
ATOM     26  C   UNL     1       3.635   1.560   1.056  1.00  0.00     0.137 C 
ATOM     27  C   UNL     1       3.341   3.039   1.236  1.00  0.00     0.036 C 
ATOM     28  O   UNL     1       4.078   1.082   2.349  1.00  0.00    -0.376 OA
ATOM     29  C   UNL     1       4.379   3.432   2.256  1.00  0.00     0.031 C 
ATOM     30  C   UNL     1       4.407   2.219   3.161  1.00  0.00     0.160 C 
ENDBRANCH  25  26
ENDBRANCH  23  25
ENDBRANCH   3  23
TORSDOF 7
