
     RDKit          3D

 42 45  0  0  0  0  0  0  0  0999 V2000
    3.6661    3.0568    2.2932 C   0  0  0  0  0  0  0  0  0  0  0  0
    4.2605    1.8512    1.8293 O   0  0  0  0  0  0  0  0  0  0  0  0
    3.4109    0.8322    1.4973 C   0  0  0  0  0  0  0  0  0  0  0  0
    2.0172    0.8737    1.5564 C   0  0  0  0  0  0  0  0  0  0  0  0
    1.2626   -0.2442    1.1834 C   0  0  0  0  0  0  0  0  0  0  0  0
    1.9012   -1.4039    0.7386 C   0  0  0  0  0  0  0  0  0  0  0  0
    1.2271   -2.5479    0.3748 O   0  0  0  0  0  0  0  0  0  0  0  0
    0.1321   -2.3437   -0.4465 C   0  0  0  0  0  0  0  0  0  0  0  0
   -1.0777   -2.3084    0.1417 N   0  0  0  0  0  0  0  0  0  0  0  0
   -2.1476   -2.0966   -0.6344 C   0  0  0  0  0  0  0  0  0  0  0  0
   -3.7038   -1.9477    0.2038 S   0  0  0  0  0  0  0  0  0  0  0  0
   -4.1624   -0.2869   -0.3695 C   0  0  0  0  0  0  0  0  0  0  0  0
   -3.2270    0.7991    0.1073 C   0  0  0  0  0  0  0  0  0  0  0  0
   -3.2306    1.2104    1.4484 C   0  0  0  0  0  0  0  0  0  0  0  0
   -2.3629    2.2128    1.8853 C   0  0  0  0  0  0  0  0  0  0  0  0
   -1.4822    2.8141    0.9884 C   0  0  0  0  0  0  0  0  0  0  0  0
   -1.4634    2.4099   -0.3448 C   0  0  0  0  0  0  0  0  0  0  0  0
   -2.3312    1.4088   -0.7841 C   0  0  0  0  0  0  0  0  0  0  0  0
   -2.1534   -1.9648   -1.9676 N   0  0  0  0  0  0  0  0  0  0  0  0
   -0.9349   -2.0499   -2.5514 C   0  0  0  0  0  0  0  0  0  0  0  0
   -0.6883   -1.9538   -3.9527 C   0  0  0  0  0  0  0  0  0  0  0  0
    0.6484   -2.0712   -4.2594 C   0  0  0  0  0  0  0  0  0  0  0  0
    1.6058   -2.2960   -2.8616 S   0  0  0  0  0  0  0  0  0  0  0  0
    0.2363   -2.2374   -1.8269 C   0  0  0  0  0  0  0  0  0  0  0  0
    3.2933   -1.4582    0.7012 C   0  0  0  0  0  0  0  0  0  0  0  0
    4.0426   -0.3395    1.0713 C   0  0  0  0  0  0  0  0  0  0  0  0
    3.0357    3.5090    1.5203 H   0  0  0  0  0  0  0  0  0  0  0  0
    4.4722    3.7615    2.5192 H   0  0  0  0  0  0  0  0  0  0  0  0
    3.1018    2.8893    3.2166 H   0  0  0  0  0  0  0  0  0  0  0  0
    1.4824    1.7543    1.8947 H   0  0  0  0  0  0  0  0  0  0  0  0
    0.1788   -0.1969    1.2620 H   0  0  0  0  0  0  0  0  0  0  0  0
   -5.1698   -0.0679    0.0037 H   0  0  0  0  0  0  0  0  0  0  0  0
   -4.2426   -0.2804   -1.4626 H   0  0  0  0  0  0  0  0  0  0  0  0
   -3.9091    0.7473    2.1624 H   0  0  0  0  0  0  0  0  0  0  0  0
   -2.3757    2.5233    2.9269 H   0  0  0  0  0  0  0  0  0  0  0  0
   -0.8101    3.5970    1.3288 H   0  0  0  0  0  0  0  0  0  0  0  0
   -0.7732    2.8746   -1.0443 H   0  0  0  0  0  0  0  0  0  0  0  0
   -2.3020    1.1050   -1.8287 H   0  0  0  0  0  0  0  0  0  0  0  0
   -1.4630   -1.8074   -4.6943 H   0  0  0  0  0  0  0  0  0  0  0  0
    1.1102   -2.0369   -5.2371 H   0  0  0  0  0  0  0  0  0  0  0  0
    3.7974   -2.3649    0.3787 H   0  0  0  0  0  0  0  0  0  0  0  0
    5.1283   -0.3821    1.0321 H   0  0  0  0  0  0  0  0  0  0  0  0
  1  2  1  0
  2  3  1  0
  3  4  2  0
  4  5  1  0
  5  6  2  0
  6  7  1  0
  7  8  1  0
  8  9  2  0
  9 10  1  0
 10 11  1  0
 11 12  1  0
 12 13  1  0
 13 14  2  0
 14 15  1  0
 15 16  2  0
 16 17  1  0
 17 18  2  0
 10 19  2  0
 19 20  1  0
 20 21  1  0
 21 22  2  0
 22 23  1  0
 23 24  1  0
  6 25  1  0
 25 26  2  0
 26  3  1  0
 24  8  1  0
 18 13  1  0
 24 20  2  0
  1 27  1  0
  1 28  1  0
  1 29  1  0
  4 30  1  0
  5 31  1  0
 12 32  1  0
 12 33  1  0
 14 34  1  0
 15 35  1  0
 16 36  1  0
 17 37  1  0
 18 38  1  0
 21 39  1  0
 22 40  1  0
 25 41  1  0
 26 42  1  0
M  END
>  <ScrubInfo>  (1) 
{"isomerGroup": 0, "isomerId": 0, "confId": 0, "nr_conformers:": 1, "nr_isomers:": 1}

$$$$
