REMARK SMILES COc1ccc(Oc2nc(SCc3ccccc3)nc3ccsc23)cc1
REMARK SMILES IDX 8 1 9 2 10 3 19 4 20 5 21 6 22 7 23 8 24 9 7 10 6 11 3 12
REMARK SMILES IDX 4 13 26 14 5 15 25 16 2 17 1 18 11 19 12 20 13 21 14 22
REMARK SMILES IDX 18 23 15 24 17 25 16 26
REMARK H PARENT
ROOT
ATOM      1  C   UNL     1       0.132  -2.344  -0.447  1.00  0.00     0.241 A 
ATOM      2  N   UNL     1      -1.078  -2.308   0.142  1.00  0.00    -0.186 NA
ATOM      3  C   UNL     1      -2.148  -2.097  -0.634  1.00  0.00     0.192 A 
ATOM      4  N   UNL     1      -2.153  -1.965  -1.968  1.00  0.00    -0.221 NA
ATOM      5  C   UNL     1      -0.935  -2.050  -2.551  1.00  0.00     0.090 A 
ATOM      6  C   UNL     1      -0.688  -1.954  -3.953  1.00  0.00     0.041 A 
ATOM      7  C   UNL     1       0.648  -2.071  -4.259  1.00  0.00     0.068 A 
ATOM      8  S   UNL     1       1.606  -2.296  -2.862  1.00  0.00    -0.136 S 
ATOM      9  C   UNL     1       0.236  -2.237  -1.827  1.00  0.00     0.116 A 
ENDROOT
BRANCH   1  10
ATOM     10  O   UNL     1       1.227  -2.548   0.375  1.00  0.00    -0.437 OA
BRANCH  10  11
ATOM     11  C   UNL     1       1.901  -1.404   0.739  1.00  0.00     0.129 A 
ATOM     12  C   UNL     1       3.411   0.832   1.497  1.00  0.00     0.119 A 
ATOM     13  C   UNL     1       2.017   0.874   1.556  1.00  0.00     0.050 A 
ATOM     14  C   UNL     1       4.043  -0.340   1.071  1.00  0.00     0.050 A 
ATOM     15  C   UNL     1       1.263  -0.244   1.183  1.00  0.00     0.051 A 
ATOM     16  C   UNL     1       3.293  -1.458   0.701  1.00  0.00     0.051 A 
BRANCH  12  17
ATOM     17  O   UNL     1       4.261   1.851   1.829  1.00  0.00    -0.497 OA
ATOM     18  C   UNL     1       3.666   3.057   2.293  1.00  0.00     0.278 C 
ENDBRANCH  12  17
ENDBRANCH  10  11
ENDBRANCH   1  10
BRANCH   3  19
ATOM     19  S   UNL     1      -3.704  -1.948   0.204  1.00  0.00    -0.081 SA
BRANCH  19  20
ATOM     20  C   UNL     1      -4.162  -0.287  -0.369  1.00  0.00     0.113 C 
BRANCH  20  21
ATOM     21  C   UNL     1      -3.227   0.799   0.107  1.00  0.00    -0.038 A 
ATOM     22  C   UNL     1      -3.231   1.210   1.448  1.00  0.00     0.004 A 
ATOM     23  C   UNL     1      -2.331   1.409  -0.784  1.00  0.00     0.004 A 
ATOM     24  C   UNL     1      -2.363   2.213   1.885  1.00  0.00     0.000 A 
ATOM     25  C   UNL     1      -1.463   2.410  -0.345  1.00  0.00     0.000 A 
ATOM     26  C   UNL     1      -1.482   2.814   0.988  1.00  0.00     0.000 A 
ENDBRANCH  20  21
ENDBRANCH  19  20
ENDBRANCH   3  19
TORSDOF 6
