REMARK SMILES COc1ccc(Nc2nc(NCCCO)nc3[nH]ncc23)cc1
REMARK SMILES IDX 11 1 10 3 8 4 9 5 21 6 20 7 17 8 16 9 19 10 18 11 7 13 6 15
REMARK SMILES IDX 3 16 4 17 23 18 5 19 22 20 2 21 1 22 12 23 13 24 14 25 15 26
REMARK H PARENT 11 2 18 12 7 14 15 27
ROOT
ATOM      1  N   UNL     1      -3.519  -0.212   0.708  1.00  0.00    -0.354 N 
ATOM      2  H   UNL     1      -4.163  -0.996   0.651  1.00  0.00     0.163 HD
ENDROOT
BRANCH   1   3
ATOM      3  C   UNL     1      -2.300  -0.740   0.287  1.00  0.00     0.226 A 
ATOM      4  C   UNL     1      -0.101  -0.410  -0.462  1.00  0.00     0.147 A 
ATOM      5  N   UNL     1      -1.303   0.091  -0.081  1.00  0.00    -0.195 NA
ATOM      6  C   UNL     1       0.042  -1.798  -0.501  1.00  0.00     0.082 A 
ATOM      7  C   UNL     1       1.010  -2.761  -0.855  1.00  0.00     0.149 A 
ATOM      8  C   UNL     1      -1.050  -2.542  -0.108  1.00  0.00     0.162 A 
ATOM      9  N   UNL     1      -2.237  -2.079   0.301  1.00  0.00    -0.193 NA
ATOM     10  N   UNL     1       0.579  -4.018  -0.681  1.00  0.00    -0.181 NA
ATOM     11  N   UNL     1      -0.680  -3.849  -0.225  1.00  0.00    -0.261 N 
ATOM     12  H   UNL     1      -1.243  -4.664  -0.014  1.00  0.00     0.192 HD
BRANCH   4  13
ATOM     13  N   UNL     1       0.884   0.516  -0.841  1.00  0.00    -0.339 N 
ATOM     14  H   UNL     1       0.486   1.440  -0.677  1.00  0.00     0.168 HD
BRANCH  13  15
ATOM     15  C   UNL     1       2.253   0.501  -0.506  1.00  0.00     0.040 A 
ATOM     16  C   UNL     1       5.003   0.631   0.124  1.00  0.00     0.119 A 
ATOM     17  C   UNL     1       4.118  -0.077   0.938  1.00  0.00     0.048 A 
ATOM     18  C   UNL     1       4.508   1.293  -0.998  1.00  0.00     0.048 A 
ATOM     19  C   UNL     1       2.754  -0.135   0.633  1.00  0.00     0.030 A 
ATOM     20  C   UNL     1       3.142   1.234  -1.302  1.00  0.00     0.030 A 
BRANCH  16  21
ATOM     21  O   UNL     1       6.306   0.606   0.536  1.00  0.00    -0.497 OA
ATOM     22  C   UNL     1       7.250   1.292  -0.277  1.00  0.00     0.278 C 
ENDBRANCH  16  21
ENDBRANCH  13  15
ENDBRANCH   4  13
ENDBRANCH   1   3
BRANCH   1  23
ATOM     23  C   UNL     1      -3.942   0.970  -0.028  1.00  0.00     0.118 C 
BRANCH  23  24
ATOM     24  C   UNL     1      -5.240   1.529   0.562  1.00  0.00     0.049 C 
BRANCH  24  25
ATOM     25  C   UNL     1      -6.458   0.653   0.299  1.00  0.00     0.158 C 
BRANCH  25  26
ATOM     26  O   UNL     1      -6.704   0.539  -1.095  1.00  0.00    -0.396 OA
ATOM     27  H   UNL     1      -7.016   1.405  -1.411  1.00  0.00     0.210 HD
ENDBRANCH  25  26
ENDBRANCH  24  25
ENDBRANCH  23  24
ENDBRANCH   1  23
TORSDOF 8
