_i0
     RDKit          3D

 41 43  0  0  0  0  0  0  0  0999 V2000
    7.2504    1.2924   -0.2765 C   0  0  0  0  0  0  0  0  0  0  0  0
    6.3062    0.6061    0.5356 O   0  0  0  0  0  0  0  0  0  0  0  0
    5.0030    0.6314    0.1238 C   0  0  0  0  0  0  0  0  0  0  0  0
    4.1182   -0.0767    0.9383 C   0  0  0  0  0  0  0  0  0  0  0  0
    2.7544   -0.1349    0.6334 C   0  0  0  0  0  0  0  0  0  0  0  0
    2.2534    0.5009   -0.5057 C   0  0  0  0  0  0  0  0  0  0  0  0
    0.8840    0.5164   -0.8407 N   0  0  0  0  0  0  0  0  0  0  0  0
   -0.1010   -0.4099   -0.4623 C   0  0  0  0  0  0  0  0  0  0  0  0
   -1.3034    0.0907   -0.0813 N   0  0  0  0  0  0  0  0  0  0  0  0
   -2.2996   -0.7402    0.2875 C   0  0  0  0  0  0  0  0  0  0  0  0
   -3.5189   -0.2125    0.7081 N   0  0  0  0  0  0  0  0  0  0  0  0
   -3.9420    0.9695   -0.0279 C   0  0  0  0  0  0  0  0  0  0  0  0
   -5.2402    1.5289    0.5618 C   0  0  0  0  0  0  0  0  0  0  0  0
   -6.4582    0.6533    0.2993 C   0  0  0  0  0  0  0  0  0  0  0  0
   -6.7041    0.5387   -1.0955 O   0  0  0  0  0  0  0  0  0  0  0  0
   -2.2372   -2.0792    0.3014 N   0  0  0  0  0  0  0  0  0  0  0  0
   -1.0497   -2.5417   -0.1085 C   0  0  0  0  0  0  0  0  0  0  0  0
   -0.6800   -3.8495   -0.2247 N   0  0  0  0  0  0  0  0  0  0  0  0
    0.5792   -4.0183   -0.6815 N   0  0  0  0  0  0  0  0  0  0  0  0
    1.0096   -2.7614   -0.8545 C   0  0  0  0  0  0  0  0  0  0  0  0
    0.0419   -1.7977   -0.5013 C   0  0  0  0  0  0  0  0  0  0  0  0
    3.1422    1.2337   -1.3016 C   0  0  0  0  0  0  0  0  0  0  0  0
    4.5082    1.2926   -0.9981 C   0  0  0  0  0  0  0  0  0  0  0  0
    7.0362    2.3657   -0.3087 H   0  0  0  0  0  0  0  0  0  0  0  0
    7.2890    0.8659   -1.2843 H   0  0  0  0  0  0  0  0  0  0  0  0
    8.2377    1.1636    0.1774 H   0  0  0  0  0  0  0  0  0  0  0  0
    4.4915   -0.5834    1.8253 H   0  0  0  0  0  0  0  0  0  0  0  0
    2.0958   -0.6717    1.3110 H   0  0  0  0  0  0  0  0  0  0  0  0
    0.4862    1.4397   -0.6769 H   0  0  0  0  0  0  0  0  0  0  0  0
   -4.1632   -0.9960    0.6513 H   0  0  0  0  0  0  0  0  0  0  0  0
   -4.0693    0.7395   -1.0926 H   0  0  0  0  0  0  0  0  0  0  0  0
   -3.1846    1.7593    0.0552 H   0  0  0  0  0  0  0  0  0  0  0  0
   -5.4153    2.5138    0.1115 H   0  0  0  0  0  0  0  0  0  0  0  0
   -5.1264    1.6761    1.6423 H   0  0  0  0  0  0  0  0  0  0  0  0
   -7.3478    1.0848    0.7699 H   0  0  0  0  0  0  0  0  0  0  0  0
   -6.3245   -0.3529    0.7068 H   0  0  0  0  0  0  0  0  0  0  0  0
   -7.0162    1.4047   -1.4108 H   0  0  0  0  0  0  0  0  0  0  0  0
   -1.2432   -4.6641   -0.0140 H   0  0  0  0  0  0  0  0  0  0  0  0
    2.0119   -2.5970   -1.2301 H   0  0  0  0  0  0  0  0  0  0  0  0
    2.7736    1.7554   -2.1823 H   0  0  0  0  0  0  0  0  0  0  0  0
    5.1522    1.8640   -1.6577 H   0  0  0  0  0  0  0  0  0  0  0  0
  1  2  1  0
  2  3  1  0
  3  4  2  0
  4  5  1  0
  5  6  2  0
  6  7  1  0
  7  8  1  0
  8  9  2  0
  9 10  1  0
 10 11  1  0
 11 12  1  0
 12 13  1  0
 13 14  1  0
 14 15  1  0
 10 16  2  0
 16 17  1  0
 17 18  1  0
 18 19  1  0
 19 20  2  0
 20 21  1  0
  6 22  1  0
 22 23  2  0
 23  3  1  0
 21  8  1  0
 21 17  2  0
  1 24  1  0
  1 25  1  0
  1 26  1  0
  4 27  1  0
  5 28  1  0
  7 29  1  0
 11 30  1  0
 12 31  1  0
 12 32  1  0
 13 33  1  0
 13 34  1  0
 14 35  1  0
 14 36  1  0
 15 37  1  0
 18 38  1  0
 20 39  1  0
 22 40  1  0
 23 41  1  0
M  END
>  <ScrubInfo>  (1) 
{"isomerGroup": 0, "isomerId": 0, "confId": 0, "nr_conformers:": 1, "nr_isomers:": 16}

$$$$
_i1
     RDKit          3D

 41 43  0  0  0  0  0  0  0  0999 V2000
   -1.6900   -0.7317   -0.0227 N   0  0  0  0  0  0  0  0  0  0  0  0
   -2.2804   -1.8832   -0.4854 C   0  0  0  0  0  0  0  0  0  0  0  0
   -3.6449   -1.9272   -0.5003 N   0  0  0  0  0  0  0  0  0  0  0  0
   -4.5196   -1.2610    0.4454 C   0  0  0  0  0  0  0  0  0  0  0  0
   -5.3053   -0.1364   -0.2257 C   0  0  0  0  0  0  0  0  0  0  0  0
   -4.4410    0.9792   -0.8005 C   0  0  0  0  0  0  0  0  0  0  0  0
   -3.4955    1.4150    0.1708 O   0  0  0  0  0  0  0  0  0  0  0  0
   -1.6081   -2.9178   -0.9317 N   0  0  0  0  0  0  0  0  0  0  0  0
   -0.2676   -2.7039   -0.8563 C   0  0  0  0  0  0  0  0  0  0  0  0
    0.6770   -3.6144   -1.2196 N   0  0  0  0  0  0  0  0  0  0  0  0
    1.9399   -3.1722   -1.0501 N   0  0  0  0  0  0  0  0  0  0  0  0
    1.7723   -1.9360   -0.5586 C   0  0  0  0  0  0  0  0  0  0  0  0
    0.4172   -1.5832   -0.4195 C   0  0  0  0  0  0  0  0  0  0  0  0
   -0.3470   -0.4353    0.0302 C   0  0  0  0  0  0  0  0  0  0  0  0
    0.0866    0.7250    0.4203 N   0  0  0  0  0  0  0  0  0  0  0  0
    1.4467    1.0320    0.4625 C   0  0  0  0  0  0  0  0  0  0  0  0
    2.1685    0.8667    1.6446 C   0  0  0  0  0  0  0  0  0  0  0  0
    3.5233    1.2039    1.6944 C   0  0  0  0  0  0  0  0  0  0  0  0
    4.1689    1.7241    0.5697 C   0  0  0  0  0  0  0  0  0  0  0  0
    5.4939    2.0081    0.7520 O   0  0  0  0  0  0  0  0  0  0  0  0
    6.2069    2.5003   -0.3755 C   0  0  0  0  0  0  0  0  0  0  0  0
    3.4424    1.9150   -0.6061 C   0  0  0  0  0  0  0  0  0  0  0  0
    2.0847    1.5774   -0.6540 C   0  0  0  0  0  0  0  0  0  0  0  0
   -2.2934    0.0461    0.2237 H   0  0  0  0  0  0  0  0  0  0  0  0
   -3.9746   -2.8422   -0.7954 H   0  0  0  0  0  0  0  0  0  0  0  0
   -5.2328   -1.9998    0.8303 H   0  0  0  0  0  0  0  0  0  0  0  0
   -3.9715   -0.8947    1.3210 H   0  0  0  0  0  0  0  0  0  0  0  0
   -5.9427   -0.5407   -1.0209 H   0  0  0  0  0  0  0  0  0  0  0  0
   -5.9717    0.2951    0.5316 H   0  0  0  0  0  0  0  0  0  0  0  0
   -5.0689    1.8290   -1.0873 H   0  0  0  0  0  0  0  0  0  0  0  0
   -3.8956    0.6397   -1.6867 H   0  0  0  0  0  0  0  0  0  0  0  0
   -3.0885    2.2336   -0.1736 H   0  0  0  0  0  0  0  0  0  0  0  0
    0.5224   -4.5457   -1.5853 H   0  0  0  0  0  0  0  0  0  0  0  0
    2.6581   -1.3603   -0.3281 H   0  0  0  0  0  0  0  0  0  0  0  0
    1.6756    0.4733    2.5291 H   0  0  0  0  0  0  0  0  0  0  0  0
    4.0788    1.0629    2.6182 H   0  0  0  0  0  0  0  0  0  0  0  0
    7.2471    2.6536   -0.0724 H   0  0  0  0  0  0  0  0  0  0  0  0
    5.8093    3.4670   -0.7017 H   0  0  0  0  0  0  0  0  0  0  0  0
    6.2024    1.7735   -1.1946 H   0  0  0  0  0  0  0  0  0  0  0  0
    3.8963    2.3274   -1.5007 H   0  0  0  0  0  0  0  0  0  0  0  0
    1.5212    1.7378   -1.5691 H   0  0  0  0  0  0  0  0  0  0  0  0
  1  2  1  0
  2  3  1  0
  3  4  1  0
  4  5  1  0
  5  6  1  0
  6  7  1  0
  2  8  2  0
  8  9  1  0
  9 10  1  0
 10 11  1  0
 11 12  2  0
 12 13  1  0
 13 14  1  0
 14 15  2  3
 15 16  1  0
 16 17  2  0
 17 18  1  0
 18 19  2  0
 19 20  1  0
 20 21  1  0
 19 22  1  0
 22 23  2  0
 14  1  1  0
 23 16  1  0
 13  9  2  0
  1 24  1  0
  3 25  1  0
  4 26  1  0
  4 27  1  0
  5 28  1  0
  5 29  1  0
  6 30  1  0
  6 31  1  0
  7 32  1  0
 10 33  1  0
 12 34  1  0
 17 35  1  0
 18 36  1  0
 21 37  1  0
 21 38  1  0
 21 39  1  0
 22 40  1  0
 23 41  1  0
M  END
>  <ScrubInfo>  (2) 
{"isomerGroup": 0, "isomerId": 1, "confId": 0, "nr_conformers:": 1, "nr_isomers:": 16}

$$$$
_i2
     RDKit          3D

 41 43  0  0  0  0  0  0  0  0999 V2000
   -0.5589   -0.7416   -0.3833 N   0  0  0  0  0  0  0  0  0  0  0  0
    0.3367   -1.7282   -0.7550 C   0  0  0  0  0  0  0  0  0  0  0  0
    1.6084   -1.4493   -1.2191 N   0  0  0  0  0  0  0  0  0  0  0  0
    2.4497   -0.3660   -0.8995 C   0  0  0  0  0  0  0  0  0  0  0  0
    2.2647    0.4580    0.2164 C   0  0  0  0  0  0  0  0  0  0  0  0
    3.1043    1.5548    0.4588 C   0  0  0  0  0  0  0  0  0  0  0  0
    4.1422    1.8525   -0.4206 C   0  0  0  0  0  0  0  0  0  0  0  0
    5.0281    2.8864   -0.3037 O   0  0  0  0  0  0  0  0  0  0  0  0
    4.8459    3.7674    0.7979 C   0  0  0  0  0  0  0  0  0  0  0  0
    4.3327    1.0420   -1.5389 C   0  0  0  0  0  0  0  0  0  0  0  0
    3.4944   -0.0516   -1.7782 C   0  0  0  0  0  0  0  0  0  0  0  0
   -0.1453   -2.9753   -0.6823 C   0  0  0  0  0  0  0  0  0  0  0  0
    0.3092   -4.3483   -0.9390 C   0  0  0  0  0  0  0  0  0  0  0  0
   -0.6035   -5.2486   -0.6693 N   0  0  0  0  0  0  0  0  0  0  0  0
   -1.7053   -4.5282   -0.2160 N   0  0  0  0  0  0  0  0  0  0  0  0
   -1.5298   -3.1638   -0.1978 C   0  0  0  0  0  0  0  0  0  0  0  0
   -2.3510   -2.2338    0.1457 N   0  0  0  0  0  0  0  0  0  0  0  0
   -1.8502   -0.9556    0.0235 C   0  0  0  0  0  0  0  0  0  0  0  0
   -2.5993    0.0682    0.2806 N   0  0  0  0  0  0  0  0  0  0  0  0
   -3.9722   -0.2129    0.7192 C   0  0  0  0  0  0  0  0  0  0  0  0
   -4.6683    1.1049    1.0732 C   0  0  0  0  0  0  0  0  0  0  0  0
   -4.7922    2.0462   -0.1221 C   0  0  0  0  0  0  0  0  0  0  0  0
   -3.5180    2.5411   -0.5174 O   0  0  0  0  0  0  0  0  0  0  0  0
   -0.2893    0.2143   -0.5668 H   0  0  0  0  0  0  0  0  0  0  0  0
    2.1068   -2.2200   -1.6524 H   0  0  0  0  0  0  0  0  0  0  0  0
    1.4870    0.2440    0.9451 H   0  0  0  0  0  0  0  0  0  0  0  0
    2.9189    2.1495    1.3474 H   0  0  0  0  0  0  0  0  0  0  0  0
    5.6145    4.5438    0.7356 H   0  0  0  0  0  0  0  0  0  0  0  0
    4.9800    3.2417    1.7490 H   0  0  0  0  0  0  0  0  0  0  0  0
    3.8694    4.2610    0.7524 H   0  0  0  0  0  0  0  0  0  0  0  0
    5.1359    1.2679   -2.2362 H   0  0  0  0  0  0  0  0  0  0  0  0
    3.6605   -0.6470   -2.6725 H   0  0  0  0  0  0  0  0  0  0  0  0
    1.3191   -4.5528   -1.3165 H   0  0  0  0  0  0  0  0  0  0  0  0
   -2.5791   -4.9712    0.0485 H   0  0  0  0  0  0  0  0  0  0  0  0
   -4.5348   -0.7192   -0.0745 H   0  0  0  0  0  0  0  0  0  0  0  0
   -3.9700   -0.8487    1.6130 H   0  0  0  0  0  0  0  0  0  0  0  0
   -4.1049    1.6037    1.8711 H   0  0  0  0  0  0  0  0  0  0  0  0
   -5.6698    0.8809    1.4572 H   0  0  0  0  0  0  0  0  0  0  0  0
   -5.2507    1.5416   -0.9785 H   0  0  0  0  0  0  0  0  0  0  0  0
   -5.4148    2.9071    0.1391 H   0  0  0  0  0  0  0  0  0  0  0  0
   -2.9009    1.7852   -0.4118 H   0  0  0  0  0  0  0  0  0  0  0  0
  1  2  1  0
  2  3  1  0
  3  4  1  0
  4  5  2  0
  5  6  1  0
  6  7  2  0
  7  8  1  0
  8  9  1  0
  7 10  1  0
 10 11  2  0
  2 12  2  0
 12 13  1  0
 13 14  2  0
 14 15  1  0
 15 16  1  0
 16 17  2  0
 17 18  1  0
 18 19  2  3
 19 20  1  0
 20 21  1  0
 21 22  1  0
 22 23  1  0
 18  1  1  0
 11  4  1  0
 16 12  1  0
  1 24  1  0
  3 25  1  0
  5 26  1  0
  6 27  1  0
  9 28  1  0
  9 29  1  0
  9 30  1  0
 10 31  1  0
 11 32  1  0
 13 33  1  0
 15 34  1  0
 20 35  1  0
 20 36  1  0
 21 37  1  0
 21 38  1  0
 22 39  1  0
 22 40  1  0
 23 41  1  0
M  END
>  <ScrubInfo>  (3) 
{"isomerGroup": 0, "isomerId": 2, "confId": 0, "nr_conformers:": 1, "nr_isomers:": 16}

$$$$
_i3
     RDKit          3D

 41 43  0  0  0  0  0  0  0  0999 V2000
   -2.5277   -1.2542   -0.8167 N   0  0  0  0  0  0  0  0  0  0  0  0
   -1.7820   -0.6604    0.1882 C   0  0  0  0  0  0  0  0  0  0  0  0
   -2.2047   -0.3014    1.3464 N   0  0  0  0  0  0  0  0  0  0  0  0
   -3.5855   -0.5084    1.7597 C   0  0  0  0  0  0  0  0  0  0  0  0
   -4.3954    0.7506    1.4561 C   0  0  0  0  0  0  0  0  0  0  0  0
   -5.8666    0.5921    1.8138 C   0  0  0  0  0  0  0  0  0  0  0  0
   -6.0339    0.2870    3.1897 O   0  0  0  0  0  0  0  0  0  0  0  0
   -0.4369   -0.3824    0.0040 N   0  0  0  0  0  0  0  0  0  0  0  0
    0.1686   -0.6747   -1.1089 C   0  0  0  0  0  0  0  0  0  0  0  0
    1.4859   -0.4653   -1.4414 N   0  0  0  0  0  0  0  0  0  0  0  0
    2.5170    0.1072   -0.6713 C   0  0  0  0  0  0  0  0  0  0  0  0
    3.7948    0.2215   -1.2470 C   0  0  0  0  0  0  0  0  0  0  0  0
    4.8726    0.7824   -0.5467 C   0  0  0  0  0  0  0  0  0  0  0  0
    4.6946    1.2451    0.7530 C   0  0  0  0  0  0  0  0  0  0  0  0
    5.6514    1.8110    1.5474 O   0  0  0  0  0  0  0  0  0  0  0  0
    6.9556    1.9352    0.9955 C   0  0  0  0  0  0  0  0  0  0  0  0
    3.4334    1.1394    1.3361 C   0  0  0  0  0  0  0  0  0  0  0  0
    2.3585    0.5784    0.6335 C   0  0  0  0  0  0  0  0  0  0  0  0
   -0.5861   -1.3020   -2.1793 C   0  0  0  0  0  0  0  0  0  0  0  0
   -0.3644   -1.7708   -3.4860 C   0  0  0  0  0  0  0  0  0  0  0  0
   -1.4731   -2.2819   -4.0444 N   0  0  0  0  0  0  0  0  0  0  0  0
   -2.4127   -2.1401   -3.0825 N   0  0  0  0  0  0  0  0  0  0  0  0
   -1.9106   -1.5585   -1.9665 C   0  0  0  0  0  0  0  0  0  0  0  0
   -3.5051   -1.4251   -0.6388 H   0  0  0  0  0  0  0  0  0  0  0  0
   -3.5855   -0.6970    2.8395 H   0  0  0  0  0  0  0  0  0  0  0  0
   -4.0390   -1.3956    1.3053 H   0  0  0  0  0  0  0  0  0  0  0  0
   -4.3104    1.0077    0.3937 H   0  0  0  0  0  0  0  0  0  0  0  0
   -3.9693    1.5873    2.0238 H   0  0  0  0  0  0  0  0  0  0  0  0
   -6.3214   -0.2145    1.2301 H   0  0  0  0  0  0  0  0  0  0  0  0
   -6.4145    1.5145    1.5962 H   0  0  0  0  0  0  0  0  0  0  0  0
   -5.6014    0.9929    3.7023 H   0  0  0  0  0  0  0  0  0  0  0  0
    1.7919   -0.7606   -2.3561 H   0  0  0  0  0  0  0  0  0  0  0  0
    3.9736   -0.1280   -2.2612 H   0  0  0  0  0  0  0  0  0  0  0  0
    5.8324    0.8409   -1.0483 H   0  0  0  0  0  0  0  0  0  0  0  0
    7.5959    2.4001    1.7514 H   0  0  0  0  0  0  0  0  0  0  0  0
    7.3792    0.9536    0.7584 H   0  0  0  0  0  0  0  0  0  0  0  0
    6.9515    2.5874    0.1159 H   0  0  0  0  0  0  0  0  0  0  0  0
    3.2756    1.4960    2.3514 H   0  0  0  0  0  0  0  0  0  0  0  0
    1.4017    0.5249    1.1450 H   0  0  0  0  0  0  0  0  0  0  0  0
    0.5466   -1.7699   -4.0696 H   0  0  0  0  0  0  0  0  0  0  0  0
   -3.3548   -2.4640   -3.2718 H   0  0  0  0  0  0  0  0  0  0  0  0
  1  2  1  0
  2  3  2  3
  3  4  1  0
  4  5  1  0
  5  6  1  0
  6  7  1  0
  2  8  1  0
  8  9  2  0
  9 10  1  0
 10 11  1  0
 11 12  2  0
 12 13  1  0
 13 14  2  0
 14 15  1  0
 15 16  1  0
 14 17  1  0
 17 18  2  0
  9 19  1  0
 19 20  1  0
 20 21  2  0
 21 22  1  0
 22 23  1  0
 23  1  1  0
 18 11  1  0
 23 19  2  0
  1 24  1  0
  4 25  1  0
  4 26  1  0
  5 27  1  0
  5 28  1  0
  6 29  1  0
  6 30  1  0
  7 31  1  0
 10 32  1  0
 12 33  1  0
 13 34  1  0
 16 35  1  0
 16 36  1  0
 16 37  1  0
 17 38  1  0
 18 39  1  0
 20 40  1  0
 22 41  1  0
M  END
>  <ScrubInfo>  (4) 
{"isomerGroup": 0, "isomerId": 3, "confId": 0, "nr_conformers:": 1, "nr_isomers:": 16}

$$$$
_i4
     RDKit          3D

 41 43  0  0  0  0  0  0  0  0999 V2000
   -1.6677    0.1825   -3.0363 N   0  0  0  0  0  0  0  0  0  0  0  0
   -2.2079   -0.1494   -1.8284 C   0  0  0  0  0  0  0  0  0  0  0  0
   -3.5179    0.2264   -1.7047 N   0  0  0  0  0  0  0  0  0  0  0  0
   -4.3047   -0.1261   -0.5294 C   0  0  0  0  0  0  0  0  0  0  0  0
   -3.9960    0.8149    0.6305 C   0  0  0  0  0  0  0  0  0  0  0  0
   -4.8673    0.5014    1.8378 C   0  0  0  0  0  0  0  0  0  0  0  0
   -4.5435    1.3675    2.9171 O   0  0  0  0  0  0  0  0  0  0  0  0
   -1.5320   -0.7588   -0.8898 N   0  0  0  0  0  0  0  0  0  0  0  0
   -0.1916   -1.0830   -1.1237 C   0  0  0  0  0  0  0  0  0  0  0  0
    0.4907   -1.7458   -0.1069 N   0  0  0  0  0  0  0  0  0  0  0  0
    1.7233   -1.3191    0.4463 C   0  0  0  0  0  0  0  0  0  0  0  0
    2.1472    0.0152    0.4360 C   0  0  0  0  0  0  0  0  0  0  0  0
    3.3513    0.3927    1.0453 C   0  0  0  0  0  0  0  0  0  0  0  0
    4.1377   -0.5575    1.6944 C   0  0  0  0  0  0  0  0  0  0  0  0
    5.3275   -0.3241    2.3257 O   0  0  0  0  0  0  0  0  0  0  0  0
    5.8288    1.0060    2.2807 C   0  0  0  0  0  0  0  0  0  0  0  0
    3.7025   -1.8825    1.7384 C   0  0  0  0  0  0  0  0  0  0  0  0
    2.5016   -2.2582    1.1303 C   0  0  0  0  0  0  0  0  0  0  0  0
    0.3994   -0.8005   -2.2982 C   0  0  0  0  0  0  0  0  0  0  0  0
    1.6824   -0.9619   -2.9385 C   0  0  0  0  0  0  0  0  0  0  0  0
    1.6798   -0.4330   -4.1306 N   0  0  0  0  0  0  0  0  0  0  0  0
    0.3501    0.1221   -4.3753 N   0  0  0  0  0  0  0  0  0  0  0  0
   -0.3745   -0.1110   -3.3170 C   0  0  0  0  0  0  0  0  0  0  0  0
   -2.1682    0.7647   -3.6870 H   0  0  0  0  0  0  0  0  0  0  0  0
   -4.0512    0.1620   -2.5642 H   0  0  0  0  0  0  0  0  0  0  0  0
   -5.3657   -0.0376   -0.7914 H   0  0  0  0  0  0  0  0  0  0  0  0
   -4.1342   -1.1724   -0.2497 H   0  0  0  0  0  0  0  0  0  0  0  0
   -2.9401    0.7519    0.9197 H   0  0  0  0  0  0  0  0  0  0  0  0
   -4.1519    1.8576    0.3251 H   0  0  0  0  0  0  0  0  0  0  0  0
   -5.9295    0.6260    1.6037 H   0  0  0  0  0  0  0  0  0  0  0  0
   -4.7101   -0.5278    2.1753 H   0  0  0  0  0  0  0  0  0  0  0  0
   -4.6350    2.2839    2.6049 H   0  0  0  0  0  0  0  0  0  0  0  0
   -0.1761   -1.8795    0.6552 H   0  0  0  0  0  0  0  0  0  0  0  0
    1.5421    0.7869   -0.0332 H   0  0  0  0  0  0  0  0  0  0  0  0
    3.6366    1.4385    1.0013 H   0  0  0  0  0  0  0  0  0  0  0  0
    6.0112    1.3254    1.2493 H   0  0  0  0  0  0  0  0  0  0  0  0
    5.1554    1.6984    2.7965 H   0  0  0  0  0  0  0  0  0  0  0  0
    6.7876    1.0198    2.8079 H   0  0  0  0  0  0  0  0  0  0  0  0
    4.3022   -2.6299    2.2520 H   0  0  0  0  0  0  0  0  0  0  0  0
    2.1833   -3.2967    1.1804 H   0  0  0  0  0  0  0  0  0  0  0  0
    2.5240   -1.4668   -2.4496 H   0  0  0  0  0  0  0  0  0  0  0  0
  1  2  1  0
  2  3  1  0
  3  4  1  0
  4  5  1  0
  5  6  1  0
  6  7  1  0
  2  8  2  0
  8  9  1  0
  9 10  1  0
 10 11  1  0
 11 12  2  0
 12 13  1  0
 13 14  2  0
 14 15  1  0
 15 16  1  0
 14 17  1  0
 17 18  2  0
  9 19  2  0
 19 20  1  0
 20 21  2  0
 21 22  1  0
 22 23  2  0
 23  1  1  0
 18 11  1  0
 23 19  1  0
  1 24  1  0
  3 25  1  0
  4 26  1  0
  4 27  1  0
  5 28  1  0
  5 29  1  0
  6 30  1  0
  6 31  1  0
  7 32  1  0
 10 33  1  0
 12 34  1  0
 13 35  1  0
 16 36  1  0
 16 37  1  0
 16 38  1  0
 17 39  1  0
 18 40  1  0
 20 41  1  0
M  END
>  <ScrubInfo>  (5) 
{"isomerGroup": 0, "isomerId": 4, "confId": 0, "nr_conformers:": 1, "nr_isomers:": 16}

$$$$
_i5
     RDKit          3D

 41 43  0  0  0  0  0  0  0  0999 V2000
   -1.6803   -0.7313   -0.3117 N   0  0  0  0  0  0  0  0  0  0  0  0
   -2.4573   -1.8557   -0.2529 C   0  0  0  0  0  0  0  0  0  0  0  0
   -3.7484   -1.6823    0.1448 N   0  0  0  0  0  0  0  0  0  0  0  0
   -4.2237   -0.6472    1.0409 C   0  0  0  0  0  0  0  0  0  0  0  0
   -5.1292    0.3403    0.3102 C   0  0  0  0  0  0  0  0  0  0  0  0
   -4.4803    1.0441   -0.8759 C   0  0  0  0  0  0  0  0  0  0  0  0
   -3.2330    1.6320   -0.5041 O   0  0  0  0  0  0  0  0  0  0  0  0
   -2.0415   -3.0500   -0.5548 N   0  0  0  0  0  0  0  0  0  0  0  0
   -0.7411   -3.1324   -0.9655 C   0  0  0  0  0  0  0  0  0  0  0  0
   -0.1113   -4.2146   -1.3336 N   0  0  0  0  0  0  0  0  0  0  0  0
    1.2474   -3.8172   -1.7159 N   0  0  0  0  0  0  0  0  0  0  0  0
    1.3445   -2.5273   -1.5536 C   0  0  0  0  0  0  0  0  0  0  0  0
    0.1130   -1.9564   -1.0531 C   0  0  0  0  0  0  0  0  0  0  0  0
   -0.3585   -0.7488   -0.7164 C   0  0  0  0  0  0  0  0  0  0  0  0
    0.3641    0.4332   -0.7972 N   0  0  0  0  0  0  0  0  0  0  0  0
    1.6850    0.6072   -0.3154 C   0  0  0  0  0  0  0  0  0  0  0  0
    2.1951   -0.0958    0.7805 C   0  0  0  0  0  0  0  0  0  0  0  0
    3.4866    0.1633    1.2498 C   0  0  0  0  0  0  0  0  0  0  0  0
    4.2822    1.1407    0.6500 C   0  0  0  0  0  0  0  0  0  0  0  0
    5.5214    1.2909    1.2066 O   0  0  0  0  0  0  0  0  0  0  0  0
    6.3919    2.2346    0.5952 C   0  0  0  0  0  0  0  0  0  0  0  0
    3.7686    1.8693   -0.4208 C   0  0  0  0  0  0  0  0  0  0  0  0
    2.4748    1.6102   -0.8900 C   0  0  0  0  0  0  0  0  0  0  0  0
   -2.1385    0.1751   -0.2681 H   0  0  0  0  0  0  0  0  0  0  0  0
   -4.2259   -2.5755    0.2402 H   0  0  0  0  0  0  0  0  0  0  0  0
   -4.8004   -1.1230    1.8431 H   0  0  0  0  0  0  0  0  0  0  0  0
   -3.3987   -0.1248    1.5386 H   0  0  0  0  0  0  0  0  0  0  0  0
   -6.0363   -0.1697   -0.0356 H   0  0  0  0  0  0  0  0  0  0  0  0
   -5.4451    1.0984    1.0375 H   0  0  0  0  0  0  0  0  0  0  0  0
   -5.1438    1.8361   -1.2396 H   0  0  0  0  0  0  0  0  0  0  0  0
   -4.2985    0.3479   -1.7006 H   0  0  0  0  0  0  0  0  0  0  0  0
   -3.0471    2.3055   -1.1866 H   0  0  0  0  0  0  0  0  0  0  0  0
    2.2304   -1.9157   -1.7617 H   0  0  0  0  0  0  0  0  0  0  0  0
   -0.1988    1.2188   -0.4746 H   0  0  0  0  0  0  0  0  0  0  0  0
    1.5989   -0.8457    1.2942 H   0  0  0  0  0  0  0  0  0  0  0  0
    3.8731   -0.3998    2.0964 H   0  0  0  0  0  0  0  0  0  0  0  0
    7.3431    2.2112    1.1357 H   0  0  0  0  0  0  0  0  0  0  0  0
    5.9892    3.2498    0.6737 H   0  0  0  0  0  0  0  0  0  0  0  0
    6.5945    1.9687   -0.4476 H   0  0  0  0  0  0  0  0  0  0  0  0
    4.3433    2.6468   -0.9127 H   0  0  0  0  0  0  0  0  0  0  0  0
    2.0907    2.1891   -1.7270 H   0  0  0  0  0  0  0  0  0  0  0  0
  1  2  1  0
  2  3  1  0
  3  4  1  0
  4  5  1  0
  5  6  1  0
  6  7  1  0
  2  8  2  0
  8  9  1  0
  9 10  2  0
 10 11  1  0
 11 12  2  0
 12 13  1  0
 13 14  2  0
 14 15  1  0
 15 16  1  0
 16 17  2  0
 17 18  1  0
 18 19  2  0
 19 20  1  0
 20 21  1  0
 19 22  1  0
 22 23  2  0
 14  1  1  0
 23 16  1  0
 13  9  1  0
  1 24  1  0
  3 25  1  0
  4 26  1  0
  4 27  1  0
  5 28  1  0
  5 29  1  0
  6 30  1  0
  6 31  1  0
  7 32  1  0
 12 33  1  0
 15 34  1  0
 17 35  1  0
 18 36  1  0
 21 37  1  0
 21 38  1  0
 21 39  1  0
 22 40  1  0
 23 41  1  0
M  END
>  <ScrubInfo>  (6) 
{"isomerGroup": 0, "isomerId": 5, "confId": 0, "nr_conformers:": 1, "nr_isomers:": 16}

$$$$
_i6
     RDKit          3D

 41 43  0  0  0  0  0  0  0  0999 V2000
    1.8114   -1.4983   -0.5247 N   0  0  0  0  0  0  0  0  0  0  0  0
    2.0125   -0.4786    0.3717 C   0  0  0  0  0  0  0  0  0  0  0  0
    3.2864   -0.3499    0.8470 N   0  0  0  0  0  0  0  0  0  0  0  0
    4.4434   -0.3050   -0.0405 C   0  0  0  0  0  0  0  0  0  0  0  0
    5.7071   -0.0535    0.7825 C   0  0  0  0  0  0  0  0  0  0  0  0
    6.9613   -0.1189   -0.0762 C   0  0  0  0  0  0  0  0  0  0  0  0
    6.9209    0.8699   -1.0938 O   0  0  0  0  0  0  0  0  0  0  0  0
    1.0951    0.3412    0.8024 N   0  0  0  0  0  0  0  0  0  0  0  0
   -0.2112    0.2310    0.3363 C   0  0  0  0  0  0  0  0  0  0  0  0
   -1.0480    1.1137    0.7812 N   0  0  0  0  0  0  0  0  0  0  0  0
   -2.3885    1.1325    0.4013 C   0  0  0  0  0  0  0  0  0  0  0  0
   -3.3486    0.4772    1.1757 C   0  0  0  0  0  0  0  0  0  0  0  0
   -4.7014    0.5141    0.8180 C   0  0  0  0  0  0  0  0  0  0  0  0
   -5.1059    1.2247   -0.3126 C   0  0  0  0  0  0  0  0  0  0  0  0
   -6.3877    1.3403   -0.7744 O   0  0  0  0  0  0  0  0  0  0  0  0
   -7.4000    0.6684   -0.0355 C   0  0  0  0  0  0  0  0  0  0  0  0
   -4.1487    1.9032   -1.0714 C   0  0  0  0  0  0  0  0  0  0  0  0
   -2.7990    1.8660   -0.7123 C   0  0  0  0  0  0  0  0  0  0  0  0
   -0.4801   -0.8595   -0.5870 C   0  0  0  0  0  0  0  0  0  0  0  0
   -1.5785   -1.4066   -1.2768 C   0  0  0  0  0  0  0  0  0  0  0  0
   -1.2492   -2.4803   -2.0160 N   0  0  0  0  0  0  0  0  0  0  0  0
    0.0748   -2.6209   -1.8006 N   0  0  0  0  0  0  0  0  0  0  0  0
    0.5566   -1.6719   -0.9636 C   0  0  0  0  0  0  0  0  0  0  0  0
    2.5502   -2.1794   -0.6318 H   0  0  0  0  0  0  0  0  0  0  0  0
    3.2869    0.4384    1.4937 H   0  0  0  0  0  0  0  0  0  0  0  0
    4.5410   -1.2546   -0.5779 H   0  0  0  0  0  0  0  0  0  0  0  0
    4.3050    0.4916   -0.7804 H   0  0  0  0  0  0  0  0  0  0  0  0
    5.7825   -0.7919    1.5897 H   0  0  0  0  0  0  0  0  0  0  0  0
    5.6350    0.9352    1.2524 H   0  0  0  0  0  0  0  0  0  0  0  0
    7.8574    0.0416    0.5317 H   0  0  0  0  0  0  0  0  0  0  0  0
    7.0517   -1.0981   -0.5569 H   0  0  0  0  0  0  0  0  0  0  0  0
    7.0480    1.7372   -0.6696 H   0  0  0  0  0  0  0  0  0  0  0  0
   -3.0390   -0.0638    2.0663 H   0  0  0  0  0  0  0  0  0  0  0  0
   -5.4083   -0.0156    1.4472 H   0  0  0  0  0  0  0  0  0  0  0  0
   -8.3565    0.8549   -0.5332 H   0  0  0  0  0  0  0  0  0  0  0  0
   -7.4724    1.0629    0.9834 H   0  0  0  0  0  0  0  0  0  0  0  0
   -7.2328   -0.4138   -0.0304 H   0  0  0  0  0  0  0  0  0  0  0  0
   -4.4567    2.4714   -1.9456 H   0  0  0  0  0  0  0  0  0  0  0  0
   -2.0663    2.4113   -1.3005 H   0  0  0  0  0  0  0  0  0  0  0  0
   -2.6123   -1.0884   -1.2824 H   0  0  0  0  0  0  0  0  0  0  0  0
    0.5642   -3.3776   -2.2643 H   0  0  0  0  0  0  0  0  0  0  0  0
  1  2  1  0
  2  3  1  0
  3  4  1  0
  4  5  1  0
  5  6  1  0
  6  7  1  0
  2  8  2  0
  8  9  1  0
  9 10  2  3
 10 11  1  0
 11 12  2  0
 12 13  1  0
 13 14  2  0
 14 15  1  0
 15 16  1  0
 14 17  1  0
 17 18  2  0
  9 19  1  0
 19 20  1  0
 20 21  2  0
 21 22  1  0
 22 23  1  0
 23  1  1  0
 18 11  1  0
 23 19  2  0
  1 24  1  0
  3 25  1  0
  4 26  1  0
  4 27  1  0
  5 28  1  0
  5 29  1  0
  6 30  1  0
  6 31  1  0
  7 32  1  0
 12 33  1  0
 13 34  1  0
 16 35  1  0
 16 36  1  0
 16 37  1  0
 17 38  1  0
 18 39  1  0
 20 40  1  0
 22 41  1  0
M  END
>  <ScrubInfo>  (7) 
{"isomerGroup": 0, "isomerId": 6, "confId": 0, "nr_conformers:": 1, "nr_isomers:": 16}

$$$$
_i7
     RDKit          3D

 41 43  0  0  0  0  0  0  0  0999 V2000
   -2.1548    2.0247   -4.8613 N   0  0  0  0  0  0  0  0  0  0  0  0
   -0.9316    1.8526   -4.2191 C   0  0  0  0  0  0  0  0  0  0  0  0
   -1.0602    1.3344   -2.9909 C   0  0  0  0  0  0  0  0  0  0  0  0
   -0.2102    0.9884   -1.8762 C   0  0  0  0  0  0  0  0  0  0  0  0
    1.0815    1.0874   -1.9299 N   0  0  0  0  0  0  0  0  0  0  0  0
    1.8214    0.7343   -0.7919 C   0  0  0  0  0  0  0  0  0  0  0  0
    2.1157   -0.6027   -0.5127 C   0  0  0  0  0  0  0  0  0  0  0  0
    2.8537   -0.9507    0.6246 C   0  0  0  0  0  0  0  0  0  0  0  0
    3.3198    0.0428    1.4859 C   0  0  0  0  0  0  0  0  0  0  0  0
    4.0435   -0.1586    2.6291 O   0  0  0  0  0  0  0  0  0  0  0  0
    4.2569   -1.5095    3.0193 C   0  0  0  0  0  0  0  0  0  0  0  0
    3.0518    1.3819    1.1914 C   0  0  0  0  0  0  0  0  0  0  0  0
    2.3100    1.7263    0.0583 C   0  0  0  0  0  0  0  0  0  0  0  0
   -0.8896    0.5602   -0.7678 N   0  0  0  0  0  0  0  0  0  0  0  0
   -2.1819    0.4399   -0.7311 C   0  0  0  0  0  0  0  0  0  0  0  0
   -2.8101    0.0051    0.4015 N   0  0  0  0  0  0  0  0  0  0  0  0
   -2.1882    0.0114    1.7111 C   0  0  0  0  0  0  0  0  0  0  0  0
   -1.2736   -1.1904    1.9268 C   0  0  0  0  0  0  0  0  0  0  0  0
   -2.0066   -2.5180    1.8064 C   0  0  0  0  0  0  0  0  0  0  0  0
   -1.1228   -3.5717    2.1761 O   0  0  0  0  0  0  0  0  0  0  0  0
   -3.0361    0.7191   -1.7695 N   0  0  0  0  0  0  0  0  0  0  0  0
   -2.5050    1.1214   -2.8695 C   0  0  0  0  0  0  0  0  0  0  0  0
   -3.1337    1.4484   -4.0643 N   0  0  0  0  0  0  0  0  0  0  0  0
   -2.1374    1.7371   -5.8438 H   0  0  0  0  0  0  0  0  0  0  0  0
   -0.0156    2.1335   -4.7203 H   0  0  0  0  0  0  0  0  0  0  0  0
    1.7500   -1.3805   -1.1768 H   0  0  0  0  0  0  0  0  0  0  0  0
    3.0395   -2.0035    0.8058 H   0  0  0  0  0  0  0  0  0  0  0  0
    3.3074   -2.0278    3.1903 H   0  0  0  0  0  0  0  0  0  0  0  0
    4.8709   -2.0393    2.2836 H   0  0  0  0  0  0  0  0  0  0  0  0
    4.8061   -1.5009    3.9657 H   0  0  0  0  0  0  0  0  0  0  0  0
    3.4189    2.1635    1.8511 H   0  0  0  0  0  0  0  0  0  0  0  0
    2.1050    2.7699   -0.1593 H   0  0  0  0  0  0  0  0  0  0  0  0
   -3.8016    0.2093    0.3823 H   0  0  0  0  0  0  0  0  0  0  0  0
   -2.9793   -0.0008    2.4700 H   0  0  0  0  0  0  0  0  0  0  0  0
   -1.6290    0.9424    1.8620 H   0  0  0  0  0  0  0  0  0  0  0  0
   -0.8184   -1.1188    2.9227 H   0  0  0  0  0  0  0  0  0  0  0  0
   -0.4350   -1.1806    1.2222 H   0  0  0  0  0  0  0  0  0  0  0  0
   -2.3405   -2.6932    0.7788 H   0  0  0  0  0  0  0  0  0  0  0  0
   -2.8737   -2.5504    2.4736 H   0  0  0  0  0  0  0  0  0  0  0  0
   -1.5916   -4.4058    2.0031 H   0  0  0  0  0  0  0  0  0  0  0  0
   -4.0256    1.9281   -3.9576 H   0  0  0  0  0  0  0  0  0  0  0  0
  1  2  1  0
  2  3  2  0
  3  4  1  0
  4  5  2  3
  5  6  1  0
  6  7  2  0
  7  8  1  0
  8  9  2  0
  9 10  1  0
 10 11  1  0
  9 12  1  0
 12 13  2  0
  4 14  1  0
 14 15  2  0
 15 16  1  0
 16 17  1  0
 17 18  1  0
 18 19  1  0
 19 20  1  0
 15 21  1  0
 21 22  2  0
 22 23  1  0
 23  1  1  0
 22  3  1  0
 13  6  1  0
  1 24  1  0
  2 25  1  0
  7 26  1  0
  8 27  1  0
 11 28  1  0
 11 29  1  0
 11 30  1  0
 12 31  1  0
 13 32  1  0
 16 33  1  0
 17 34  1  0
 17 35  1  0
 18 36  1  0
 18 37  1  0
 19 38  1  0
 19 39  1  0
 20 40  1  0
 23 41  1  0
M  END
>  <ScrubInfo>  (8) 
{"isomerGroup": 0, "isomerId": 7, "confId": 0, "nr_conformers:": 1, "nr_isomers:": 16}

$$$$
_i8
     RDKit          3D

 41 43  0  0  0  0  0  0  0  0999 V2000
   -0.6630    3.8995   -1.2349 N   0  0  0  0  0  0  0  0  0  0  0  0
   -1.0359    2.5897   -1.3588 C   0  0  0  0  0  0  0  0  0  0  0  0
    0.0157    1.8792   -0.8425 C   0  0  0  0  0  0  0  0  0  0  0  0
    0.1807    0.5016   -0.7349 C   0  0  0  0  0  0  0  0  0  0  0  0
   -0.7078   -0.5145   -1.1108 N   0  0  0  0  0  0  0  0  0  0  0  0
   -2.0812   -0.6036   -0.7997 C   0  0  0  0  0  0  0  0  0  0  0  0
   -2.8877   -1.4416   -1.5762 C   0  0  0  0  0  0  0  0  0  0  0  0
   -4.2449   -1.6004   -1.2819 C   0  0  0  0  0  0  0  0  0  0  0  0
   -4.8181   -0.9426   -0.1931 C   0  0  0  0  0  0  0  0  0  0  0  0
   -6.1519   -1.1833   -0.0155 O   0  0  0  0  0  0  0  0  0  0  0  0
   -6.7763   -0.5542    1.0965 C   0  0  0  0  0  0  0  0  0  0  0  0
   -4.0166   -0.1272    0.6038 C   0  0  0  0  0  0  0  0  0  0  0  0
   -2.6566    0.0328    0.3059 C   0  0  0  0  0  0  0  0  0  0  0  0
    1.4037    0.1608   -0.2398 N   0  0  0  0  0  0  0  0  0  0  0  0
    2.3080    1.1215    0.1356 C   0  0  0  0  0  0  0  0  0  0  0  0
    3.5301    0.7086    0.6680 N   0  0  0  0  0  0  0  0  0  0  0  0
    4.0907   -0.4768    0.0359 C   0  0  0  0  0  0  0  0  0  0  0  0
    5.4611   -0.7669    0.6522 C   0  0  0  0  0  0  0  0  0  0  0  0
    6.1373   -1.9628   -0.0027 C   0  0  0  0  0  0  0  0  0  0  0  0
    5.3771   -3.1463    0.1907 O   0  0  0  0  0  0  0  0  0  0  0  0
    2.1742    2.4657    0.0628 N   0  0  0  0  0  0  0  0  0  0  0  0
    0.9844    2.8317   -0.4560 C   0  0  0  0  0  0  0  0  0  0  0  0
    0.5564    4.0769   -0.6875 N   0  0  0  0  0  0  0  0  0  0  0  0
   -1.1869    4.7250   -1.5085 H   0  0  0  0  0  0  0  0  0  0  0  0
   -1.9825    2.3022   -1.7940 H   0  0  0  0  0  0  0  0  0  0  0  0
   -0.2433   -1.3950   -0.8923 H   0  0  0  0  0  0  0  0  0  0  0  0
   -2.4647   -1.9674   -2.4288 H   0  0  0  0  0  0  0  0  0  0  0  0
   -4.8582   -2.2460   -1.9057 H   0  0  0  0  0  0  0  0  0  0  0  0
   -6.3332   -0.8895    2.0401 H   0  0  0  0  0  0  0  0  0  0  0  0
   -7.8297   -0.8501    1.0999 H   0  0  0  0  0  0  0  0  0  0  0  0
   -6.7371    0.5364    1.0061 H   0  0  0  0  0  0  0  0  0  0  0  0
   -4.4109    0.3925    1.4705 H   0  0  0  0  0  0  0  0  0  0  0  0
   -2.0524    0.6522    0.9642 H   0  0  0  0  0  0  0  0  0  0  0  0
    4.1207    1.5351    0.6363 H   0  0  0  0  0  0  0  0  0  0  0  0
    3.4346   -1.3416    0.1919 H   0  0  0  0  0  0  0  0  0  0  0  0
    4.2002   -0.3161   -1.0441 H   0  0  0  0  0  0  0  0  0  0  0  0
    5.3354   -0.9572    1.7255 H   0  0  0  0  0  0  0  0  0  0  0  0
    6.1091    0.1122    0.5525 H   0  0  0  0  0  0  0  0  0  0  0  0
    6.2533   -1.8038   -1.0794 H   0  0  0  0  0  0  0  0  0  0  0  0
    7.1334   -2.1209    0.4232 H   0  0  0  0  0  0  0  0  0  0  0  0
    5.3329   -3.3159    1.1482 H   0  0  0  0  0  0  0  0  0  0  0  0
  1  2  1  0
  2  3  2  0
  3  4  1  0
  4  5  1  0
  5  6  1  0
  6  7  2  0
  7  8  1  0
  8  9  2  0
  9 10  1  0
 10 11  1  0
  9 12  1  0
 12 13  2  0
  4 14  2  0
 14 15  1  0
 15 16  1  0
 16 17  1  0
 17 18  1  0
 18 19  1  0
 19 20  1  0
 15 21  2  0
 21 22  1  0
 22 23  2  0
 23  1  1  0
 22  3  1  0
 13  6  1  0
  1 24  1  0
  2 25  1  0
  5 26  1  0
  7 27  1  0
  8 28  1  0
 11 29  1  0
 11 30  1  0
 11 31  1  0
 12 32  1  0
 13 33  1  0
 16 34  1  0
 17 35  1  0
 17 36  1  0
 18 37  1  0
 18 38  1  0
 19 39  1  0
 19 40  1  0
 20 41  1  0
M  END
>  <ScrubInfo>  (9) 
{"isomerGroup": 0, "isomerId": 8, "confId": 0, "nr_conformers:": 1, "nr_isomers:": 16}

$$$$
_i9
     RDKit          3D

 41 43  0  0  0  0  0  0  0  0999 V2000
    0.4807   -3.6056   -0.5127 N   0  0  0  0  0  0  0  0  0  0  0  0
   -0.2805   -2.6454    0.1458 C   0  0  0  0  0  0  0  0  0  0  0  0
    0.3482   -1.4671    0.2514 C   0  0  0  0  0  0  0  0  0  0  0  0
    0.1338   -0.1436    0.8320 C   0  0  0  0  0  0  0  0  0  0  0  0
   -1.0314    0.2362    1.4626 N   0  0  0  0  0  0  0  0  0  0  0  0
   -2.3220    0.0546    0.9169 C   0  0  0  0  0  0  0  0  0  0  0  0
   -2.5667    0.0134   -0.4609 C   0  0  0  0  0  0  0  0  0  0  0  0
   -3.8707   -0.1166   -0.9571 C   0  0  0  0  0  0  0  0  0  0  0  0
   -4.9513   -0.1883   -0.0799 C   0  0  0  0  0  0  0  0  0  0  0  0
   -6.2663   -0.3169   -0.4293 O   0  0  0  0  0  0  0  0  0  0  0  0
   -6.5632   -0.3511   -1.8197 C   0  0  0  0  0  0  0  0  0  0  0  0
   -4.7156   -0.1188    1.2937 C   0  0  0  0  0  0  0  0  0  0  0  0
   -3.4151    0.0141    1.7879 C   0  0  0  0  0  0  0  0  0  0  0  0
    1.1167    0.7131    0.7857 N   0  0  0  0  0  0  0  0  0  0  0  0
    2.2977    0.3487    0.1768 C   0  0  0  0  0  0  0  0  0  0  0  0
    3.2063    1.2581    0.2464 N   0  0  0  0  0  0  0  0  0  0  0  0
    4.5013    0.9724   -0.3713 C   0  0  0  0  0  0  0  0  0  0  0  0
    5.4002    2.2055   -0.2405 C   0  0  0  0  0  0  0  0  0  0  0  0
    5.6684    2.5873    1.2129 C   0  0  0  0  0  0  0  0  0  0  0  0
    4.5001    3.1117    1.8318 O   0  0  0  0  0  0  0  0  0  0  0  0
    2.5687   -0.8402   -0.4645 N   0  0  0  0  0  0  0  0  0  0  0  0
    1.6243   -1.7128   -0.4466 C   0  0  0  0  0  0  0  0  0  0  0  0
    1.6182   -2.9848   -1.0029 N   0  0  0  0  0  0  0  0  0  0  0  0
   -0.0565   -4.1737   -1.1734 H   0  0  0  0  0  0  0  0  0  0  0  0
   -1.2662   -2.9050    0.5065 H   0  0  0  0  0  0  0  0  0  0  0  0
   -0.9435    1.1875    1.8177 H   0  0  0  0  0  0  0  0  0  0  0  0
   -1.7502    0.1019   -1.1738 H   0  0  0  0  0  0  0  0  0  0  0  0
   -4.0048   -0.1470   -2.0334 H   0  0  0  0  0  0  0  0  0  0  0  0
   -6.1047   -1.2221   -2.2994 H   0  0  0  0  0  0  0  0  0  0  0  0
   -7.6481   -0.4443   -1.9276 H   0  0  0  0  0  0  0  0  0  0  0  0
   -6.2580    0.5784   -2.3117 H   0  0  0  0  0  0  0  0  0  0  0  0
   -5.5525   -0.1630    1.9867 H   0  0  0  0  0  0  0  0  0  0  0  0
   -3.2606    0.0712    2.8630 H   0  0  0  0  0  0  0  0  0  0  0  0
    4.3821    0.7462   -1.4378 H   0  0  0  0  0  0  0  0  0  0  0  0
    4.9846    0.1186    0.1189 H   0  0  0  0  0  0  0  0  0  0  0  0
    6.3539    1.9975   -0.7385 H   0  0  0  0  0  0  0  0  0  0  0  0
    4.9274    3.0499   -0.7567 H   0  0  0  0  0  0  0  0  0  0  0  0
    6.4411    3.3606    1.2610 H   0  0  0  0  0  0  0  0  0  0  0  0
    6.0139    1.7257    1.7929 H   0  0  0  0  0  0  0  0  0  0  0  0
    3.7508    2.5692    1.4977 H   0  0  0  0  0  0  0  0  0  0  0  0
    2.5095   -3.4759   -0.9500 H   0  0  0  0  0  0  0  0  0  0  0  0
  1  2  1  0
  2  3  2  0
  3  4  1  0
  4  5  1  0
  5  6  1  0
  6  7  2  0
  7  8  1  0
  8  9  2  0
  9 10  1  0
 10 11  1  0
  9 12  1  0
 12 13  2  0
  4 14  2  0
 14 15  1  0
 15 16  2  3
 16 17  1  0
 17 18  1  0
 18 19  1  0
 19 20  1  0
 15 21  1  0
 21 22  2  0
 22 23  1  0
 23  1  1  0
 22  3  1  0
 13  6  1  0
  1 24  1  0
  2 25  1  0
  5 26  1  0
  7 27  1  0
  8 28  1  0
 11 29  1  0
 11 30  1  0
 11 31  1  0
 12 32  1  0
 13 33  1  0
 17 34  1  0
 17 35  1  0
 18 36  1  0
 18 37  1  0
 19 38  1  0
 19 39  1  0
 20 40  1  0
 23 41  1  0
M  END
>  <ScrubInfo>  (10) 
{"isomerGroup": 0, "isomerId": 9, "confId": 0, "nr_conformers:": 1, "nr_isomers:": 16}

$$$$
_i10
     RDKit          3D

 41 43  0  0  0  0  0  0  0  0999 V2000
   -2.5742   -0.2941   -2.6017 N   0  0  0  0  0  0  0  0  0  0  0  0
   -2.0636   -0.1169   -1.3281 C   0  0  0  0  0  0  0  0  0  0  0  0
   -2.8839    0.1891   -0.3785 N   0  0  0  0  0  0  0  0  0  0  0  0
   -2.3376    0.3825    0.9644 C   0  0  0  0  0  0  0  0  0  0  0  0
   -3.4873    0.7625    1.8962 C   0  0  0  0  0  0  0  0  0  0  0  0
   -3.0153    0.9492    3.3310 C   0  0  0  0  0  0  0  0  0  0  0  0
   -2.0845    2.0200    3.4197 O   0  0  0  0  0  0  0  0  0  0  0  0
   -0.6904   -0.2984   -1.2489 N   0  0  0  0  0  0  0  0  0  0  0  0
    0.2329   -0.6183   -2.2320 C   0  0  0  0  0  0  0  0  0  0  0  0
    1.5126   -0.7879   -2.1687 N   0  0  0  0  0  0  0  0  0  0  0  0
    2.1292   -0.6417   -0.9211 C   0  0  0  0  0  0  0  0  0  0  0  0
    2.5941    0.6071   -0.5038 C   0  0  0  0  0  0  0  0  0  0  0  0
    3.1896    0.7626    0.7532 C   0  0  0  0  0  0  0  0  0  0  0  0
    3.3339   -0.3376    1.5989 C   0  0  0  0  0  0  0  0  0  0  0  0
    3.8902   -0.3257    2.8476 O   0  0  0  0  0  0  0  0  0  0  0  0
    4.3499    0.9285    3.3356 C   0  0  0  0  0  0  0  0  0  0  0  0
    2.8874   -1.5907    1.1715 C   0  0  0  0  0  0  0  0  0  0  0  0
    2.2931   -1.7443   -0.0831 C   0  0  0  0  0  0  0  0  0  0  0  0
   -0.4080   -0.7738   -3.5154 C   0  0  0  0  0  0  0  0  0  0  0  0
    0.0125   -1.0829   -4.8179 C   0  0  0  0  0  0  0  0  0  0  0  0
   -1.0084   -1.1065   -5.6910 N   0  0  0  0  0  0  0  0  0  0  0  0
   -2.0881   -0.8103   -4.9317 N   0  0  0  0  0  0  0  0  0  0  0  0
   -1.7630   -0.6058   -3.6301 C   0  0  0  0  0  0  0  0  0  0  0  0
   -3.5769   -0.1650   -2.6760 H   0  0  0  0  0  0  0  0  0  0  0  0
   -1.5870    1.1816    0.9580 H   0  0  0  0  0  0  0  0  0  0  0  0
   -1.8688   -0.5423    1.3215 H   0  0  0  0  0  0  0  0  0  0  0  0
   -4.2615   -0.0134    1.8658 H   0  0  0  0  0  0  0  0  0  0  0  0
   -3.9452    1.6917    1.5347 H   0  0  0  0  0  0  0  0  0  0  0  0
   -2.5286    0.0424    3.7036 H   0  0  0  0  0  0  0  0  0  0  0  0
   -3.8612    1.1731    3.9888 H   0  0  0  0  0  0  0  0  0  0  0  0
   -2.5547    2.8329    3.1638 H   0  0  0  0  0  0  0  0  0  0  0  0
   -0.2886   -0.1801   -0.3322 H   0  0  0  0  0  0  0  0  0  0  0  0
    2.4935    1.4655   -1.1633 H   0  0  0  0  0  0  0  0  0  0  0  0
    3.5329    1.7521    1.0356 H   0  0  0  0  0  0  0  0  0  0  0  0
    4.7539    0.7687    4.3399 H   0  0  0  0  0  0  0  0  0  0  0  0
    5.1578    1.3227    2.7105 H   0  0  0  0  0  0  0  0  0  0  0  0
    3.5267    1.6460    3.4180 H   0  0  0  0  0  0  0  0  0  0  0  0
    3.0086   -2.4557    1.8192 H   0  0  0  0  0  0  0  0  0  0  0  0
    1.9594   -2.7261   -0.4075 H   0  0  0  0  0  0  0  0  0  0  0  0
    1.0155   -1.2913   -5.1684 H   0  0  0  0  0  0  0  0  0  0  0  0
   -2.9971   -0.7690   -5.3777 H   0  0  0  0  0  0  0  0  0  0  0  0
  1  2  1  0
  2  3  2  3
  3  4  1  0
  4  5  1  0
  5  6  1  0
  6  7  1  0
  2  8  1  0
  8  9  1  0
  9 10  2  3
 10 11  1  0
 11 12  2  0
 12 13  1  0
 13 14  2  0
 14 15  1  0
 15 16  1  0
 14 17  1  0
 17 18  2  0
  9 19  1  0
 19 20  1  0
 20 21  2  0
 21 22  1  0
 22 23  1  0
 23  1  1  0
 18 11  1  0
 23 19  2  0
  1 24  1  0
  4 25  1  0
  4 26  1  0
  5 27  1  0
  5 28  1  0
  6 29  1  0
  6 30  1  0
  7 31  1  0
  8 32  1  0
 12 33  1  0
 13 34  1  0
 16 35  1  0
 16 36  1  0
 16 37  1  0
 17 38  1  0
 18 39  1  0
 20 40  1  0
 22 41  1  0
M  END
>  <ScrubInfo>  (11) 
{"isomerGroup": 0, "isomerId": 10, "confId": 0, "nr_conformers:": 1, "nr_isomers:": 16}

$$$$
_i11
     RDKit          3D

 41 43  0  0  0  0  0  0  0  0999 V2000
    2.6229    4.0836   -1.2187 N   0  0  0  0  0  0  0  0  0  0  0  0
    1.2742    3.8539   -1.2663 C   0  0  0  0  0  0  0  0  0  0  0  0
    1.1227    2.5080   -1.0292 C   0  0  0  0  0  0  0  0  0  0  0  0
   -0.0276    1.6546   -0.9530 C   0  0  0  0  0  0  0  0  0  0  0  0
   -1.2022    2.1505   -1.1570 N   0  0  0  0  0  0  0  0  0  0  0  0
   -2.2979    1.2844   -1.0749 C   0  0  0  0  0  0  0  0  0  0  0  0
   -2.9918    1.1413    0.1281 C   0  0  0  0  0  0  0  0  0  0  0  0
   -4.0813    0.2680    0.2239 C   0  0  0  0  0  0  0  0  0  0  0  0
   -4.4902   -0.4636   -0.8915 C   0  0  0  0  0  0  0  0  0  0  0  0
   -5.5288   -1.3514   -0.9347 O   0  0  0  0  0  0  0  0  0  0  0  0
   -6.3151   -1.4800    0.2435 C   0  0  0  0  0  0  0  0  0  0  0  0
   -3.8045   -0.3084   -2.0992 C   0  0  0  0  0  0  0  0  0  0  0  0
   -2.7195    0.5662   -2.1939 C   0  0  0  0  0  0  0  0  0  0  0  0
    0.3903    0.3798   -0.6623 N   0  0  0  0  0  0  0  0  0  0  0  0
    1.6868   -0.0518   -0.5042 C   0  0  0  0  0  0  0  0  0  0  0  0
    1.7483   -1.3998   -0.2445 N   0  0  0  0  0  0  0  0  0  0  0  0
    3.0190   -2.0586    0.0364 C   0  0  0  0  0  0  0  0  0  0  0  0
    3.4562   -1.8052    1.4746 C   0  0  0  0  0  0  0  0  0  0  0  0
    4.8021   -2.4518    1.7619 C   0  0  0  0  0  0  0  0  0  0  0  0
    5.1585   -2.2325    3.1206 O   0  0  0  0  0  0  0  0  0  0  0  0
    2.7511    0.6963   -0.5949 N   0  0  0  0  0  0  0  0  0  0  0  0
    2.4321    2.0321   -0.8578 C   0  0  0  0  0  0  0  0  0  0  0  0
    3.3566    2.9812   -0.9633 N   0  0  0  0  0  0  0  0  0  0  0  0
    3.1121    4.9627   -1.3498 H   0  0  0  0  0  0  0  0  0  0  0  0
    0.5631    4.6436   -1.4609 H   0  0  0  0  0  0  0  0  0  0  0  0
   -2.6839    1.7189    0.9961 H   0  0  0  0  0  0  0  0  0  0  0  0
   -4.5883    0.1888    1.1796 H   0  0  0  0  0  0  0  0  0  0  0  0
   -6.7795   -0.5263    0.5157 H   0  0  0  0  0  0  0  0  0  0  0  0
   -7.1179   -2.1933    0.0333 H   0  0  0  0  0  0  0  0  0  0  0  0
   -5.7210   -1.8816    1.0709 H   0  0  0  0  0  0  0  0  0  0  0  0
   -4.1252   -0.8649   -2.9767 H   0  0  0  0  0  0  0  0  0  0  0  0
   -2.2058    0.6911   -3.1434 H   0  0  0  0  0  0  0  0  0  0  0  0
   -0.3216   -0.3308   -0.7091 H   0  0  0  0  0  0  0  0  0  0  0  0
    0.9832   -1.7734    0.3043 H   0  0  0  0  0  0  0  0  0  0  0  0
    3.7869   -1.7296   -0.6737 H   0  0  0  0  0  0  0  0  0  0  0  0
    2.8861   -3.1348   -0.1225 H   0  0  0  0  0  0  0  0  0  0  0  0
    2.7038   -2.1916    2.1740 H   0  0  0  0  0  0  0  0  0  0  0  0
    3.5200   -0.7303    1.6833 H   0  0  0  0  0  0  0  0  0  0  0  0
    4.7580   -3.5329    1.5975 H   0  0  0  0  0  0  0  0  0  0  0  0
    5.5904   -2.0394    1.1237 H   0  0  0  0  0  0  0  0  0  0  0  0
    5.2778   -1.2729    3.2365 H   0  0  0  0  0  0  0  0  0  0  0  0
  1  2  1  0
  2  3  2  0
  3  4  1  0
  4  5  2  3
  5  6  1  0
  6  7  2  0
  7  8  1  0
  8  9  2  0
  9 10  1  0
 10 11  1  0
  9 12  1  0
 12 13  2  0
  4 14  1  0
 14 15  1  0
 15 16  1  0
 16 17  1  0
 17 18  1  0
 18 19  1  0
 19 20  1  0
 15 21  2  0
 21 22  1  0
 22 23  2  0
 23  1  1  0
 22  3  1  0
 13  6  1  0
  1 24  1  0
  2 25  1  0
  7 26  1  0
  8 27  1  0
 11 28  1  0
 11 29  1  0
 11 30  1  0
 12 31  1  0
 13 32  1  0
 14 33  1  0
 16 34  1  0
 17 35  1  0
 17 36  1  0
 18 37  1  0
 18 38  1  0
 19 39  1  0
 19 40  1  0
 20 41  1  0
M  END
>  <ScrubInfo>  (12) 
{"isomerGroup": 0, "isomerId": 11, "confId": 0, "nr_conformers:": 1, "nr_isomers:": 16}

$$$$
_i12
     RDKit          3D

 41 43  0  0  0  0  0  0  0  0999 V2000
    1.7691    0.3582   -5.2814 N   0  0  0  0  0  0  0  0  0  0  0  0
    0.5522    0.3538   -4.6068 C   0  0  0  0  0  0  0  0  0  0  0  0
    0.6958    0.2653   -3.2790 C   0  0  0  0  0  0  0  0  0  0  0  0
   -0.1456    0.1689   -2.0861 C   0  0  0  0  0  0  0  0  0  0  0  0
   -1.4384    0.2325   -2.2091 N   0  0  0  0  0  0  0  0  0  0  0  0
   -2.2263    0.1338   -1.0563 C   0  0  0  0  0  0  0  0  0  0  0  0
   -2.5501    1.2735   -0.3205 C   0  0  0  0  0  0  0  0  0  0  0  0
   -3.3187    1.1645    0.8407 C   0  0  0  0  0  0  0  0  0  0  0  0
   -3.7835   -0.0806    1.2723 C   0  0  0  0  0  0  0  0  0  0  0  0
   -4.5193   -0.0469    2.4238 O   0  0  0  0  0  0  0  0  0  0  0  0
   -5.0572   -1.2816    2.8811 C   0  0  0  0  0  0  0  0  0  0  0  0
   -3.4765   -1.2191    0.5268 C   0  0  0  0  0  0  0  0  0  0  0  0
   -2.7046   -1.1084   -0.6355 C   0  0  0  0  0  0  0  0  0  0  0  0
    0.5908    0.0088   -0.9353 N   0  0  0  0  0  0  0  0  0  0  0  0
    1.9628   -0.0627   -0.8431 C   0  0  0  0  0  0  0  0  0  0  0  0
    2.6427   -0.2516    0.2323 N   0  0  0  0  0  0  0  0  0  0  0  0
    1.9517   -0.4147    1.5041 C   0  0  0  0  0  0  0  0  0  0  0  0
    2.9692   -0.7215    2.5980 C   0  0  0  0  0  0  0  0  0  0  0  0
    3.9769    0.4021    2.7939 C   0  0  0  0  0  0  0  0  0  0  0  0
    4.7788    0.1073    3.9337 O   0  0  0  0  0  0  0  0  0  0  0  0
    2.7625    0.0790   -1.9621 N   0  0  0  0  0  0  0  0  0  0  0  0
    2.1760    0.2557   -3.1006 C   0  0  0  0  0  0  0  0  0  0  0  0
    2.7830    0.4317   -4.3380 N   0  0  0  0  0  0  0  0  0  0  0  0
    1.8071    1.0371   -6.0464 H   0  0  0  0  0  0  0  0  0  0  0  0
   -0.3718    0.4139   -5.1649 H   0  0  0  0  0  0  0  0  0  0  0  0
   -2.2060    2.2492   -0.6523 H   0  0  0  0  0  0  0  0  0  0  0  0
   -3.5645    2.0582    1.4095 H   0  0  0  0  0  0  0  0  0  0  0  0
   -4.2604   -1.9880    3.1363 H   0  0  0  0  0  0  0  0  0  0  0  0
   -5.7453   -1.7099    2.1447 H   0  0  0  0  0  0  0  0  0  0  0  0
   -5.6281   -1.0804    3.7927 H   0  0  0  0  0  0  0  0  0  0  0  0
   -3.8238   -2.2053    0.8159 H   0  0  0  0  0  0  0  0  0  0  0  0
   -2.4765   -1.9970   -1.2188 H   0  0  0  0  0  0  0  0  0  0  0  0
    0.0720   -0.0835   -0.0778 H   0  0  0  0  0  0  0  0  0  0  0  0
    1.3998    0.4969    1.7624 H   0  0  0  0  0  0  0  0  0  0  0  0
    1.2409   -1.2481    1.4519 H   0  0  0  0  0  0  0  0  0  0  0  0
    2.4416   -0.9056    3.5421 H   0  0  0  0  0  0  0  0  0  0  0  0
    3.5065   -1.6504    2.3686 H   0  0  0  0  0  0  0  0  0  0  0  0
    4.6345    0.5003    1.9244 H   0  0  0  0  0  0  0  0  0  0  0  0
    3.4725    1.3574    2.9697 H   0  0  0  0  0  0  0  0  0  0  0  0
    5.4785    0.7821    3.9625 H   0  0  0  0  0  0  0  0  0  0  0  0
    3.6316   -0.1157   -4.4734 H   0  0  0  0  0  0  0  0  0  0  0  0
  1  2  1  0
  2  3  2  0
  3  4  1  0
  4  5  2  3
  5  6  1  0
  6  7  2  0
  7  8  1  0
  8  9  2  0
  9 10  1  0
 10 11  1  0
  9 12  1  0
 12 13  2  0
  4 14  1  0
 14 15  1  0
 15 16  2  3
 16 17  1  0
 17 18  1  0
 18 19  1  0
 19 20  1  0
 15 21  1  0
 21 22  2  0
 22 23  1  0
 23  1  1  0
 22  3  1  0
 13  6  1  0
  1 24  1  0
  2 25  1  0
  7 26  1  0
  8 27  1  0
 11 28  1  0
 11 29  1  0
 11 30  1  0
 12 31  1  0
 13 32  1  0
 14 33  1  0
 17 34  1  0
 17 35  1  0
 18 36  1  0
 18 37  1  0
 19 38  1  0
 19 39  1  0
 20 40  1  0
 23 41  1  0
M  END
>  <ScrubInfo>  (13) 
{"isomerGroup": 0, "isomerId": 12, "confId": 0, "nr_conformers:": 1, "nr_isomers:": 16}

$$$$
_i13
     RDKit          3D

 41 43  0  0  0  0  0  0  0  0999 V2000
    2.0755   -0.9989   -0.6467 N   0  0  0  0  0  0  0  0  0  0  0  0
    0.9360   -1.7418   -0.7340 C   0  0  0  0  0  0  0  0  0  0  0  0
    0.6931   -2.8250   -1.4226 N   0  0  0  0  0  0  0  0  0  0  0  0
   -0.6838   -3.2303   -1.1521 N   0  0  0  0  0  0  0  0  0  0  0  0
   -1.1996   -2.3746   -0.3158 C   0  0  0  0  0  0  0  0  0  0  0  0
   -0.2475   -1.3445    0.0239 C   0  0  0  0  0  0  0  0  0  0  0  0
   -0.1693   -0.2403    0.7865 C   0  0  0  0  0  0  0  0  0  0  0  0
   -1.2236    0.2051    1.5645 N   0  0  0  0  0  0  0  0  0  0  0  0
   -2.5200    0.5516    1.1198 C   0  0  0  0  0  0  0  0  0  0  0  0
   -2.8864    0.6265   -0.2290 C   0  0  0  0  0  0  0  0  0  0  0  0
   -4.2013    0.9339   -0.6074 C   0  0  0  0  0  0  0  0  0  0  0  0
   -5.1757    1.1638    0.3609 C   0  0  0  0  0  0  0  0  0  0  0  0
   -6.4873    1.4697    0.1294 O   0  0  0  0  0  0  0  0  0  0  0  0
   -6.9027    1.5344   -1.2293 C   0  0  0  0  0  0  0  0  0  0  0  0
   -4.8222    1.0846    1.7074 C   0  0  0  0  0  0  0  0  0  0  0  0
   -3.5108    0.7784    2.0834 C   0  0  0  0  0  0  0  0  0  0  0  0
    1.0558    0.4253    0.8299 N   0  0  0  0  0  0  0  0  0  0  0  0
    2.2090    0.1261    0.1296 C   0  0  0  0  0  0  0  0  0  0  0  0
    3.2311    0.8957    0.2754 N   0  0  0  0  0  0  0  0  0  0  0  0
    4.4612    0.6210   -0.4631 C   0  0  0  0  0  0  0  0  0  0  0  0
    5.3389   -0.3469    0.3203 C   0  0  0  0  0  0  0  0  0  0  0  0
    6.6754   -0.5692   -0.3715 C   0  0  0  0  0  0  0  0  0  0  0  0
    7.4278   -1.5165    0.3734 O   0  0  0  0  0  0  0  0  0  0  0  0
    2.8653   -1.3378   -1.1722 H   0  0  0  0  0  0  0  0  0  0  0  0
   -2.2142   -2.3957    0.0998 H   0  0  0  0  0  0  0  0  0  0  0  0
   -0.9322    0.8079    2.3291 H   0  0  0  0  0  0  0  0  0  0  0  0
   -2.1548    0.4741   -1.0180 H   0  0  0  0  0  0  0  0  0  0  0  0
   -4.4250    0.9872   -1.6679 H   0  0  0  0  0  0  0  0  0  0  0  0
   -7.9702    1.7743   -1.2414 H   0  0  0  0  0  0  0  0  0  0  0  0
   -6.7726    0.5685   -1.7287 H   0  0  0  0  0  0  0  0  0  0  0  0
   -6.3762    2.3312   -1.7650 H   0  0  0  0  0  0  0  0  0  0  0  0
   -5.5758    1.2556    2.4726 H   0  0  0  0  0  0  0  0  0  0  0  0
   -3.2752    0.7048    3.1424 H   0  0  0  0  0  0  0  0  0  0  0  0
    1.1004    1.2722    1.3796 H   0  0  0  0  0  0  0  0  0  0  0  0
    4.9903    1.5726   -0.5927 H   0  0  0  0  0  0  0  0  0  0  0  0
    4.2619    0.2495   -1.4750 H   0  0  0  0  0  0  0  0  0  0  0  0
    4.8292   -1.3094    0.4522 H   0  0  0  0  0  0  0  0  0  0  0  0
    5.5114    0.0317    1.3359 H   0  0  0  0  0  0  0  0  0  0  0  0
    7.2456    0.3635   -0.4281 H   0  0  0  0  0  0  0  0  0  0  0  0
    6.5316   -0.9609   -1.3835 H   0  0  0  0  0  0  0  0  0  0  0  0
    8.2868   -1.6174   -0.0715 H   0  0  0  0  0  0  0  0  0  0  0  0
  1  2  1  0
  2  3  2  0
  3  4  1  0
  4  5  2  0
  5  6  1  0
  6  7  2  0
  7  8  1  0
  8  9  1  0
  9 10  2  0
 10 11  1  0
 11 12  2  0
 12 13  1  0
 13 14  1  0
 12 15  1  0
 15 16  2  0
  7 17  1  0
 17 18  1  0
 18 19  2  3
 19 20  1  0
 20 21  1  0
 21 22  1  0
 22 23  1  0
 18  1  1  0
  6  2  1  0
 16  9  1  0
  1 24  1  0
  5 25  1  0
  8 26  1  0
 10 27  1  0
 11 28  1  0
 14 29  1  0
 14 30  1  0
 14 31  1  0
 15 32  1  0
 16 33  1  0
 17 34  1  0
 20 35  1  0
 20 36  1  0
 21 37  1  0
 21 38  1  0
 22 39  1  0
 22 40  1  0
 23 41  1  0
M  END
>  <ScrubInfo>  (14) 
{"isomerGroup": 0, "isomerId": 13, "confId": 0, "nr_conformers:": 1, "nr_isomers:": 16}

$$$$
_i14
     RDKit          3D

 41 43  0  0  0  0  0  0  0  0999 V2000
   -0.1174    1.0193    3.6744 N   0  0  0  0  0  0  0  0  0  0  0  0
   -0.5419    0.1135    2.7433 C   0  0  0  0  0  0  0  0  0  0  0  0
    0.3164    0.2586    1.6799 C   0  0  0  0  0  0  0  0  0  0  0  0
    0.4508   -0.3799    0.3981 C   0  0  0  0  0  0  0  0  0  0  0  0
   -0.4783   -1.3383    0.0814 N   0  0  0  0  0  0  0  0  0  0  0  0
   -1.8590   -1.0720   -0.1131 C   0  0  0  0  0  0  0  0  0  0  0  0
   -2.3831    0.2180   -0.2586 C   0  0  0  0  0  0  0  0  0  0  0  0
   -3.7538    0.4191   -0.4707 C   0  0  0  0  0  0  0  0  0  0  0  0
   -4.6201   -0.6698   -0.5480 C   0  0  0  0  0  0  0  0  0  0  0  0
   -5.9708   -0.6129   -0.7494 O   0  0  0  0  0  0  0  0  0  0  0  0
   -6.5438    0.6793   -0.9064 C   0  0  0  0  0  0  0  0  0  0  0  0
   -4.1025   -1.9587   -0.4157 C   0  0  0  0  0  0  0  0  0  0  0  0
   -2.7354   -2.1596   -0.2058 C   0  0  0  0  0  0  0  0  0  0  0  0
    1.4552   -0.0765   -0.3643 N   0  0  0  0  0  0  0  0  0  0  0  0
    2.3495    0.8873    0.0684 C   0  0  0  0  0  0  0  0  0  0  0  0
    3.3878    1.1581   -0.6561 N   0  0  0  0  0  0  0  0  0  0  0  0
    3.6048    0.4199   -1.8974 C   0  0  0  0  0  0  0  0  0  0  0  0
    4.3082   -0.9190   -1.6570 C   0  0  0  0  0  0  0  0  0  0  0  0
    5.6716   -0.7745   -0.9889 C   0  0  0  0  0  0  0  0  0  0  0  0
    5.5388   -0.8199    0.4270 O   0  0  0  0  0  0  0  0  0  0  0  0
    2.2021    1.5961    1.2317 N   0  0  0  0  0  0  0  0  0  0  0  0
    1.2213    1.2549    2.0700 C   0  0  0  0  0  0  0  0  0  0  0  0
    0.9565    1.7347    3.2840 N   0  0  0  0  0  0  0  0  0  0  0  0
   -0.5070    1.2013    4.5938 H   0  0  0  0  0  0  0  0  0  0  0  0
   -1.3885   -0.5341    2.9202 H   0  0  0  0  0  0  0  0  0  0  0  0
   -0.1540   -1.8568   -0.7325 H   0  0  0  0  0  0  0  0  0  0  0  0
   -1.7361    1.0914   -0.2233 H   0  0  0  0  0  0  0  0  0  0  0  0
   -4.1062    1.4399   -0.5757 H   0  0  0  0  0  0  0  0  0  0  0  0
   -6.4072    1.2838   -0.0036 H   0  0  0  0  0  0  0  0  0  0  0  0
   -7.6194    0.5513   -1.0617 H   0  0  0  0  0  0  0  0  0  0  0  0
   -6.1381    1.1866   -1.7880 H   0  0  0  0  0  0  0  0  0  0  0  0
   -4.7693   -2.8155   -0.4768 H   0  0  0  0  0  0  0  0  0  0  0  0
   -2.3613   -3.1753   -0.1012 H   0  0  0  0  0  0  0  0  0  0  0  0
    4.2311    1.0416   -2.5487 H   0  0  0  0  0  0  0  0  0  0  0  0
    2.6734    0.2661   -2.4561 H   0  0  0  0  0  0  0  0  0  0  0  0
    4.4507   -1.3889   -2.6377 H   0  0  0  0  0  0  0  0  0  0  0  0
    3.6678   -1.5818   -1.0643 H   0  0  0  0  0  0  0  0  0  0  0  0
    6.3144   -1.6126   -1.2766 H   0  0  0  0  0  0  0  0  0  0  0  0
    6.1690    0.1570   -1.2783 H   0  0  0  0  0  0  0  0  0  0  0  0
    6.3744   -0.4941    0.8001 H   0  0  0  0  0  0  0  0  0  0  0  0
    2.9498    2.2220    1.4837 H   0  0  0  0  0  0  0  0  0  0  0  0
  1  2  1  0
  2  3  2  0
  3  4  1  0
  4  5  1  0
  5  6  1  0
  6  7  2  0
  7  8  1  0
  8  9  2  0
  9 10  1  0
 10 11  1  0
  9 12  1  0
 12 13  2  0
  4 14  2  0
 14 15  1  0
 15 16  2  3
 16 17  1  0
 17 18  1  0
 18 19  1  0
 19 20  1  0
 15 21  1  0
 21 22  1  0
 22 23  2  0
 23  1  1  0
 22  3  1  0
 13  6  1  0
  1 24  1  0
  2 25  1  0
  5 26  1  0
  7 27  1  0
  8 28  1  0
 11 29  1  0
 11 30  1  0
 11 31  1  0
 12 32  1  0
 13 33  1  0
 17 34  1  0
 17 35  1  0
 18 36  1  0
 18 37  1  0
 19 38  1  0
 19 39  1  0
 20 40  1  0
 21 41  1  0
M  END
>  <ScrubInfo>  (15) 
{"isomerGroup": 0, "isomerId": 14, "confId": 0, "nr_conformers:": 1, "nr_isomers:": 16}

$$$$
_i15
     RDKit          3D

 41 43  0  0  0  0  0  0  0  0999 V2000
    2.3123   -1.6110   -4.6577 N   0  0  0  0  0  0  0  0  0  0  0  0
    1.1632   -1.8502   -3.9591 C   0  0  0  0  0  0  0  0  0  0  0  0
    1.1525   -0.9161   -2.9510 C   0  0  0  0  0  0  0  0  0  0  0  0
    0.2259   -0.6269   -1.8936 C   0  0  0  0  0  0  0  0  0  0  0  0
   -0.8042   -1.3907   -1.7159 N   0  0  0  0  0  0  0  0  0  0  0  0
   -1.6698   -1.0882   -0.6565 C   0  0  0  0  0  0  0  0  0  0  0  0
   -1.5590   -1.7800    0.5519 C   0  0  0  0  0  0  0  0  0  0  0  0
   -2.4204   -1.4993    1.6190 C   0  0  0  0  0  0  0  0  0  0  0  0
   -3.4107   -0.5266    1.4795 C   0  0  0  0  0  0  0  0  0  0  0  0
   -4.3147   -0.1556    2.4362 O   0  0  0  0  0  0  0  0  0  0  0  0
   -4.2069   -0.7914    3.7031 C   0  0  0  0  0  0  0  0  0  0  0  0
   -3.5337    0.1528    0.2650 C   0  0  0  0  0  0  0  0  0  0  0  0
   -2.6734   -0.1297   -0.7991 C   0  0  0  0  0  0  0  0  0  0  0  0
    0.5229    0.4720   -1.1150 N   0  0  0  0  0  0  0  0  0  0  0  0
    1.6423    1.0994   -1.3314 C   0  0  0  0  0  0  0  0  0  0  0  0
    1.9465    2.1836   -0.5510 N   0  0  0  0  0  0  0  0  0  0  0  0
    2.9847    2.0567    0.4759 C   0  0  0  0  0  0  0  0  0  0  0  0
    2.5799    1.0677    1.5754 C   0  0  0  0  0  0  0  0  0  0  0  0
    1.3932    1.5399    2.4114 C   0  0  0  0  0  0  0  0  0  0  0  0
    0.2606    1.8342    1.6059 O   0  0  0  0  0  0  0  0  0  0  0  0
    2.6060    0.8081   -2.2553 N   0  0  0  0  0  0  0  0  0  0  0  0
    2.3329   -0.1799   -3.1169 C   0  0  0  0  0  0  0  0  0  0  0  0
    3.0469   -0.5923   -4.1629 N   0  0  0  0  0  0  0  0  0  0  0  0
    2.6582   -2.0988   -5.4779 H   0  0  0  0  0  0  0  0  0  0  0  0
    0.4701   -2.6324   -4.2341 H   0  0  0  0  0  0  0  0  0  0  0  0
   -0.7949   -2.5447    0.6604 H   0  0  0  0  0  0  0  0  0  0  0  0
   -2.2937   -2.0616    2.5373 H   0  0  0  0  0  0  0  0  0  0  0  0
   -4.9800   -0.3724    4.3544 H   0  0  0  0  0  0  0  0  0  0  0  0
   -3.2356   -0.5884    4.1664 H   0  0  0  0  0  0  0  0  0  0  0  0
   -4.3889   -1.8680    3.6206 H   0  0  0  0  0  0  0  0  0  0  0  0
   -4.3050    0.9093    0.1452 H   0  0  0  0  0  0  0  0  0  0  0  0
   -2.7803    0.4051   -1.7382 H   0  0  0  0  0  0  0  0  0  0  0  0
    1.0873    2.4640   -0.0610 H   0  0  0  0  0  0  0  0  0  0  0  0
    3.9242    1.7318    0.0146 H   0  0  0  0  0  0  0  0  0  0  0  0
    3.1680    3.0453    0.9112 H   0  0  0  0  0  0  0  0  0  0  0  0
    3.4351    0.9078    2.2423 H   0  0  0  0  0  0  0  0  0  0  0  0
    2.3393    0.0966    1.1269 H   0  0  0  0  0  0  0  0  0  0  0  0
    1.1101    0.7749    3.1414 H   0  0  0  0  0  0  0  0  0  0  0  0
    1.6549    2.4487    2.9626 H   0  0  0  0  0  0  0  0  0  0  0  0
    0.0202    1.0250    1.1059 H   0  0  0  0  0  0  0  0  0  0  0  0
    3.3339    1.4817   -2.4362 H   0  0  0  0  0  0  0  0  0  0  0  0
  1  2  1  0
  2  3  2  0
  3  4  1  0
  4  5  2  3
  5  6  1  0
  6  7  2  0
  7  8  1  0
  8  9  2  0
  9 10  1  0
 10 11  1  0
  9 12  1  0
 12 13  2  0
  4 14  1  0
 14 15  2  0
 15 16  1  0
 16 17  1  0
 17 18  1  0
 18 19  1  0
 19 20  1  0
 15 21  1  0
 21 22  1  0
 22 23  2  0
 23  1  1  0
 22  3  1  0
 13  6  1  0
  1 24  1  0
  2 25  1  0
  7 26  1  0
  8 27  1  0
 11 28  1  0
 11 29  1  0
 11 30  1  0
 12 31  1  0
 13 32  1  0
 16 33  1  0
 17 34  1  0
 17 35  1  0
 18 36  1  0
 18 37  1  0
 19 38  1  0
 19 39  1  0
 20 40  1  0
 21 41  1  0
M  END
>  <ScrubInfo>  (16) 
{"isomerGroup": 0, "isomerId": 15, "confId": 0, "nr_conformers:": 1, "nr_isomers:": 16}

$$$$
