_i0
     RDKit          3D

 44 46  0  0  0  0  0  0  0  0999 V2000
    4.9863   -3.7852    1.3102 C   0  0  0  0  0  0  0  0  0  0  0  0
    4.1966   -2.5468    1.0067 C   0  0  0  0  0  0  0  0  0  0  0  0
    2.7973   -2.5796    1.0167 C   0  0  0  0  0  0  0  0  0  0  0  0
    2.0493   -1.4367    0.7038 C   0  0  0  0  0  0  0  0  0  0  0  0
    2.6788   -0.2400    0.3643 C   0  0  0  0  0  0  0  0  0  0  0  0
    2.0070    0.9503    0.0337 N   0  0  0  0  0  0  0  0  0  0  0  0
    0.6581    1.2954   -0.0773 C   0  0  0  0  0  0  0  0  0  0  0  0
   -0.3391    0.3946    0.1322 N   0  0  0  0  0  0  0  0  0  0  0  0
   -1.6304    0.7526    0.0141 C   0  0  0  0  0  0  0  0  0  0  0  0
   -2.5357   -0.2765    0.2692 N   0  0  0  0  0  0  0  0  0  0  0  0
   -3.6957   -0.2771   -0.6086 C   0  0  0  0  0  0  0  0  0  0  0  0
   -4.6757   -1.3782   -0.1926 C   0  0  0  0  0  0  0  0  0  0  0  0
   -4.1806   -2.7839   -0.5052 C   0  0  0  0  0  0  0  0  0  0  0  0
   -4.0325   -2.9640   -1.9071 O   0  0  0  0  0  0  0  0  0  0  0  0
   -2.0778    1.9727   -0.3114 N   0  0  0  0  0  0  0  0  0  0  0  0
   -1.0847    2.8500   -0.5118 C   0  0  0  0  0  0  0  0  0  0  0  0
    0.2691    2.5967   -0.4183 C   0  0  0  0  0  0  0  0  0  0  0  0
    0.8775    3.8329   -0.7219 C   0  0  0  0  0  0  0  0  0  0  0  0
   -0.0087    4.7997   -0.9876 N   0  0  0  0  0  0  0  0  0  0  0  0
   -1.1997    4.1712   -0.8470 N   0  0  0  0  0  0  0  0  0  0  0  0
   -2.4199    4.9100   -1.0515 C   0  0  0  0  0  0  0  0  0  0  0  0
    4.0864   -0.2274    0.3454 C   0  0  0  0  0  0  0  0  0  0  0  0
    4.7084    0.9520    0.0053 O   0  0  0  0  0  0  0  0  0  0  0  0
    4.8434   -1.3585    0.6546 C   0  0  0  0  0  0  0  0  0  0  0  0
    5.9526   -3.5321    1.7589 H   0  0  0  0  0  0  0  0  0  0  0  0
    4.4543   -4.4227    2.0243 H   0  0  0  0  0  0  0  0  0  0  0  0
    5.1606   -4.3524    0.3908 H   0  0  0  0  0  0  0  0  0  0  0  0
    2.2705   -3.4973    1.2703 H   0  0  0  0  0  0  0  0  0  0  0  0
    0.9675   -1.5081    0.7335 H   0  0  0  0  0  0  0  0  0  0  0  0
    2.6690    1.6942   -0.1611 H   0  0  0  0  0  0  0  0  0  0  0  0
   -1.9644   -1.1153    0.2131 H   0  0  0  0  0  0  0  0  0  0  0  0
   -4.2315    0.6773   -0.5293 H   0  0  0  0  0  0  0  0  0  0  0  0
   -3.3923   -0.4041   -1.6549 H   0  0  0  0  0  0  0  0  0  0  0  0
   -4.8911   -1.3000    0.8797 H   0  0  0  0  0  0  0  0  0  0  0  0
   -5.6166   -1.2114   -0.7315 H   0  0  0  0  0  0  0  0  0  0  0  0
   -3.2164   -2.9861   -0.0300 H   0  0  0  0  0  0  0  0  0  0  0  0
   -4.8933   -3.5301   -0.1385 H   0  0  0  0  0  0  0  0  0  0  0  0
   -4.9233   -2.9711   -2.2982 H   0  0  0  0  0  0  0  0  0  0  0  0
    1.9324    4.0711   -0.7609 H   0  0  0  0  0  0  0  0  0  0  0  0
   -2.4213    5.2949   -2.0744 H   0  0  0  0  0  0  0  0  0  0  0  0
   -3.2832    4.2582   -0.9003 H   0  0  0  0  0  0  0  0  0  0  0  0
   -2.4475    5.7335   -0.3334 H   0  0  0  0  0  0  0  0  0  0  0  0
    5.6683    0.8030    0.0356 H   0  0  0  0  0  0  0  0  0  0  0  0
    5.9281   -1.3254    0.6254 H   0  0  0  0  0  0  0  0  0  0  0  0
  1  2  1  0
  2  3  2  0
  3  4  1  0
  4  5  2  0
  5  6  1  0
  6  7  1  0
  7  8  2  0
  8  9  1  0
  9 10  1  0
 10 11  1  0
 11 12  1  0
 12 13  1  0
 13 14  1  0
  9 15  2  0
 15 16  1  0
 16 17  2  0
 17 18  1  0
 18 19  2  0
 19 20  1  0
 20 21  1  0
  5 22  1  0
 22 23  1  0
 22 24  2  0
 24  2  1  0
 17  7  1  0
 20 16  1  0
  1 25  1  0
  1 26  1  0
  1 27  1  0
  3 28  1  0
  4 29  1  0
  6 30  1  0
 10 31  1  0
 11 32  1  0
 11 33  1  0
 12 34  1  0
 12 35  1  0
 13 36  1  0
 13 37  1  0
 14 38  1  0
 18 39  1  0
 21 40  1  0
 21 41  1  0
 21 42  1  0
 23 43  1  0
 24 44  1  0
M  END
>  <ScrubInfo>  (1) 
{"isomerGroup": 0, "isomerId": 0, "confId": 0, "nr_conformers:": 1, "nr_isomers:": 9}

$$$$
_i1
     RDKit          3D

 44 46  0  0  0  0  0  0  0  0999 V2000
    0.3696   -0.7145    0.0735 N   0  0  0  0  0  0  0  0  0  0  0  0
    1.7333   -0.8802    0.0717 C   0  0  0  0  0  0  0  0  0  0  0  0
    2.4779    0.2569   -0.0865 N   0  0  0  0  0  0  0  0  0  0  0  0
    2.2683    1.1496   -1.2205 C   0  0  0  0  0  0  0  0  0  0  0  0
    3.1291    2.3994   -1.0756 C   0  0  0  0  0  0  0  0  0  0  0  0
    2.6628    3.2920    0.0669 C   0  0  0  0  0  0  0  0  0  0  0  0
    3.4433    4.4810    0.0888 O   0  0  0  0  0  0  0  0  0  0  0  0
    2.3419   -2.0302    0.2322 N   0  0  0  0  0  0  0  0  0  0  0  0
    1.4437   -3.0491    0.3562 C   0  0  0  0  0  0  0  0  0  0  0  0
    0.0637   -2.9755    0.3420 C   0  0  0  0  0  0  0  0  0  0  0  0
   -0.3796   -4.2960    0.4954 C   0  0  0  0  0  0  0  0  0  0  0  0
    0.6365   -5.1633    0.6015 N   0  0  0  0  0  0  0  0  0  0  0  0
    1.7375   -4.3749    0.5163 N   0  0  0  0  0  0  0  0  0  0  0  0
    3.0438   -4.9775    0.5956 C   0  0  0  0  0  0  0  0  0  0  0  0
   -0.5872   -1.6964    0.1981 C   0  0  0  0  0  0  0  0  0  0  0  0
   -1.8760   -1.6558    0.2260 N   0  0  0  0  0  0  0  0  0  0  0  0
   -2.5353   -0.4178    0.1253 C   0  0  0  0  0  0  0  0  0  0  0  0
   -3.3979   -0.0535    1.1617 C   0  0  0  0  0  0  0  0  0  0  0  0
   -4.1219    1.1419    1.1098 C   0  0  0  0  0  0  0  0  0  0  0  0
   -3.9961    2.0005    0.0119 C   0  0  0  0  0  0  0  0  0  0  0  0
   -4.7990    3.2662   -0.0565 C   0  0  0  0  0  0  0  0  0  0  0  0
   -3.1576    1.6325   -1.0468 C   0  0  0  0  0  0  0  0  0  0  0  0
   -2.4381    0.4366   -0.9845 C   0  0  0  0  0  0  0  0  0  0  0  0
   -1.6036    0.1125   -2.0222 O   0  0  0  0  0  0  0  0  0  0  0  0
    0.0164    0.2215   -0.0204 H   0  0  0  0  0  0  0  0  0  0  0  0
    3.4581   -0.0160   -0.0225 H   0  0  0  0  0  0  0  0  0  0  0  0
    1.2158    1.4390   -1.3116 H   0  0  0  0  0  0  0  0  0  0  0  0
    2.5460    0.6238   -2.1414 H   0  0  0  0  0  0  0  0  0  0  0  0
    4.1828    2.1315   -0.9272 H   0  0  0  0  0  0  0  0  0  0  0  0
    3.0949    2.9727   -2.0104 H   0  0  0  0  0  0  0  0  0  0  0  0
    1.6166    3.5828   -0.0698 H   0  0  0  0  0  0  0  0  0  0  0  0
    2.7568    2.7968    1.0385 H   0  0  0  0  0  0  0  0  0  0  0  0
    4.3454    4.2340    0.3565 H   0  0  0  0  0  0  0  0  0  0  0  0
   -1.3971   -4.6624    0.5353 H   0  0  0  0  0  0  0  0  0  0  0  0
    3.8172   -4.2086    0.5367 H   0  0  0  0  0  0  0  0  0  0  0  0
    3.1511   -5.6755   -0.2386 H   0  0  0  0  0  0  0  0  0  0  0  0
    3.1214   -5.5068    1.5487 H   0  0  0  0  0  0  0  0  0  0  0  0
   -3.5129   -0.7162    2.0162 H   0  0  0  0  0  0  0  0  0  0  0  0
   -4.7886    1.3919    1.9326 H   0  0  0  0  0  0  0  0  0  0  0  0
   -4.2675    4.0351   -0.6270 H   0  0  0  0  0  0  0  0  0  0  0  0
   -4.9769    3.6707    0.9454 H   0  0  0  0  0  0  0  0  0  0  0  0
   -5.7631    3.0720   -0.5364 H   0  0  0  0  0  0  0  0  0  0  0  0
   -3.0619    2.2861   -1.9094 H   0  0  0  0  0  0  0  0  0  0  0  0
   -2.0136    0.4431   -2.8398 H   0  0  0  0  0  0  0  0  0  0  0  0
  1  2  1  0
  2  3  1  0
  3  4  1  0
  4  5  1  0
  5  6  1  0
  6  7  1  0
  2  8  2  0
  8  9  1  0
  9 10  2  0
 10 11  1  0
 11 12  2  0
 12 13  1  0
 13 14  1  0
 10 15  1  0
 15 16  2  3
 16 17  1  0
 17 18  2  0
 18 19  1  0
 19 20  2  0
 20 21  1  0
 20 22  1  0
 22 23  2  0
 23 24  1  0
 15  1  1  0
 23 17  1  0
 13  9  1  0
  1 25  1  0
  3 26  1  0
  4 27  1  0
  4 28  1  0
  5 29  1  0
  5 30  1  0
  6 31  1  0
  6 32  1  0
  7 33  1  0
 11 34  1  0
 14 35  1  0
 14 36  1  0
 14 37  1  0
 18 38  1  0
 19 39  1  0
 21 40  1  0
 21 41  1  0
 21 42  1  0
 22 43  1  0
 24 44  1  0
M  END
>  <ScrubInfo>  (2) 
{"isomerGroup": 0, "isomerId": 1, "confId": 0, "nr_conformers:": 1, "nr_isomers:": 9}

$$$$
_i2
     RDKit          3D

 44 46  0  0  0  0  0  0  0  0999 V2000
   -0.6780   -0.6665   -0.0277 N   0  0  0  0  0  0  0  0  0  0  0  0
    0.2927   -1.6518    0.0363 C   0  0  0  0  0  0  0  0  0  0  0  0
    1.6373   -1.3784    0.1646 N   0  0  0  0  0  0  0  0  0  0  0  0
    2.3720   -0.2048   -0.0913 C   0  0  0  0  0  0  0  0  0  0  0  0
    1.9335    0.8254   -0.9264 C   0  0  0  0  0  0  0  0  0  0  0  0
    2.6984    1.9860   -1.0948 C   0  0  0  0  0  0  0  0  0  0  0  0
    3.9272    2.1350   -0.4407 C   0  0  0  0  0  0  0  0  0  0  0  0
    4.7227    3.3971   -0.6009 C   0  0  0  0  0  0  0  0  0  0  0  0
    4.3780    1.1124    0.4004 C   0  0  0  0  0  0  0  0  0  0  0  0
    3.6075   -0.0397    0.5602 C   0  0  0  0  0  0  0  0  0  0  0  0
    4.0434   -1.0606    1.3706 O   0  0  0  0  0  0  0  0  0  0  0  0
   -0.1755   -2.9053    0.0256 C   0  0  0  0  0  0  0  0  0  0  0  0
    0.3623   -4.2677    0.0986 C   0  0  0  0  0  0  0  0  0  0  0  0
   -0.5653   -5.1902    0.0477 N   0  0  0  0  0  0  0  0  0  0  0  0
   -1.7739   -4.4923   -0.1157 N   0  0  0  0  0  0  0  0  0  0  0  0
   -3.0197   -5.1875    0.0994 C   0  0  0  0  0  0  0  0  0  0  0  0
   -1.6341   -3.1137   -0.0827 C   0  0  0  0  0  0  0  0  0  0  0  0
   -2.5239   -2.1827   -0.1176 N   0  0  0  0  0  0  0  0  0  0  0  0
   -2.0358   -0.8957   -0.0564 C   0  0  0  0  0  0  0  0  0  0  0  0
   -2.9601   -0.0014   -0.0234 N   0  0  0  0  0  0  0  0  0  0  0  0
   -2.5732    1.4042    0.0267 C   0  0  0  0  0  0  0  0  0  0  0  0
   -3.8416    2.2503   -0.0707 C   0  0  0  0  0  0  0  0  0  0  0  0
   -3.5384    3.7388    0.0201 C   0  0  0  0  0  0  0  0  0  0  0  0
   -2.7098    4.1538   -1.0587 O   0  0  0  0  0  0  0  0  0  0  0  0
   -0.3564    0.2607    0.1993 H   0  0  0  0  0  0  0  0  0  0  0  0
    2.2261   -2.1044    0.5691 H   0  0  0  0  0  0  0  0  0  0  0  0
    1.0116    0.7327   -1.4932 H   0  0  0  0  0  0  0  0  0  0  0  0
    2.3281    2.7713   -1.7516 H   0  0  0  0  0  0  0  0  0  0  0  0
    5.7948    3.1987   -0.4984 H   0  0  0  0  0  0  0  0  0  0  0  0
    4.5672    3.8338   -1.5931 H   0  0  0  0  0  0  0  0  0  0  0  0
    4.4234    4.1264    0.1580 H   0  0  0  0  0  0  0  0  0  0  0  0
    5.3250    1.2231    0.9202 H   0  0  0  0  0  0  0  0  0  0  0  0
    4.8822   -0.7857    1.7782 H   0  0  0  0  0  0  0  0  0  0  0  0
    1.4395   -4.4487    0.2033 H   0  0  0  0  0  0  0  0  0  0  0  0
   -2.9529   -6.2211   -0.2554 H   0  0  0  0  0  0  0  0  0  0  0  0
   -3.8371   -4.7014   -0.4428 H   0  0  0  0  0  0  0  0  0  0  0  0
   -3.2684   -5.2027    1.1651 H   0  0  0  0  0  0  0  0  0  0  0  0
   -2.0605    1.6228    0.9709 H   0  0  0  0  0  0  0  0  0  0  0  0
   -1.9028    1.6496   -0.8055 H   0  0  0  0  0  0  0  0  0  0  0  0
   -4.3406    2.0332   -1.0234 H   0  0  0  0  0  0  0  0  0  0  0  0
   -4.5372    1.9715    0.7297 H   0  0  0  0  0  0  0  0  0  0  0  0
   -4.4639    4.3225   -0.0137 H   0  0  0  0  0  0  0  0  0  0  0  0
   -3.0233    3.9765    0.9561 H   0  0  0  0  0  0  0  0  0  0  0  0
   -3.2007    3.9762   -1.8805 H   0  0  0  0  0  0  0  0  0  0  0  0
  1  2  1  0
  2  3  1  0
  3  4  1  0
  4  5  2  0
  5  6  1  0
  6  7  2  0
  7  8  1  0
  7  9  1  0
  9 10  2  0
 10 11  1  0
  2 12  2  0
 12 13  1  0
 13 14  2  0
 14 15  1  0
 15 16  1  0
 15 17  1  0
 17 18  2  0
 18 19  1  0
 19 20  2  3
 20 21  1  0
 21 22  1  0
 22 23  1  0
 23 24  1  0
 19  1  1  0
 10  4  1  0
 17 12  1  0
  1 25  1  0
  3 26  1  0
  5 27  1  0
  6 28  1  0
  8 29  1  0
  8 30  1  0
  8 31  1  0
  9 32  1  0
 11 33  1  0
 13 34  1  0
 16 35  1  0
 16 36  1  0
 16 37  1  0
 21 38  1  0
 21 39  1  0
 22 40  1  0
 22 41  1  0
 23 42  1  0
 23 43  1  0
 24 44  1  0
M  END
>  <ScrubInfo>  (3) 
{"isomerGroup": 0, "isomerId": 2, "confId": 0, "nr_conformers:": 1, "nr_isomers:": 9}

$$$$
_i3
     RDKit          3D

 44 46  0  0  0  0  0  0  0  0999 V2000
   -2.1472   -1.2243    0.0433 N   0  0  0  0  0  0  0  0  0  0  0  0
   -1.4296   -0.0850   -0.2718 C   0  0  0  0  0  0  0  0  0  0  0  0
   -1.9056    1.0182   -0.7277 N   0  0  0  0  0  0  0  0  0  0  0  0
   -3.3410    1.1320   -0.9539 C   0  0  0  0  0  0  0  0  0  0  0  0
   -3.6348    2.5485   -1.4457 C   0  0  0  0  0  0  0  0  0  0  0  0
   -5.1080    2.7383   -1.7761 C   0  0  0  0  0  0  0  0  0  0  0  0
   -5.9142    2.5316   -0.6231 O   0  0  0  0  0  0  0  0  0  0  0  0
   -0.0519   -0.0375   -0.1143 N   0  0  0  0  0  0  0  0  0  0  0  0
    0.6019   -1.0704    0.3298 C   0  0  0  0  0  0  0  0  0  0  0  0
    1.9503   -1.1673    0.5443 N   0  0  0  0  0  0  0  0  0  0  0  0
    3.0024   -0.2525    0.3124 C   0  0  0  0  0  0  0  0  0  0  0  0
    4.2562   -0.5972    0.8671 C   0  0  0  0  0  0  0  0  0  0  0  0
    5.3886    0.2129    0.7209 C   0  0  0  0  0  0  0  0  0  0  0  0
    5.3104    1.4025    0.0019 C   0  0  0  0  0  0  0  0  0  0  0  0
    6.5038    2.2976   -0.1395 C   0  0  0  0  0  0  0  0  0  0  0  0
    4.0766    1.7739   -0.5359 C   0  0  0  0  0  0  0  0  0  0  0  0
    2.9418    0.9643   -0.3816 C   0  0  0  0  0  0  0  0  0  0  0  0
    1.8290    1.4733   -0.9874 O   0  0  0  0  0  0  0  0  0  0  0  0
   -0.1204   -2.2839    0.6644 C   0  0  0  0  0  0  0  0  0  0  0  0
    0.1706   -3.5717    1.1456 C   0  0  0  0  0  0  0  0  0  0  0  0
   -0.9274   -4.3302    1.2791 N   0  0  0  0  0  0  0  0  0  0  0  0
   -1.9347   -3.5190    0.8743 N   0  0  0  0  0  0  0  0  0  0  0  0
   -3.2858   -4.0199    0.8849 C   0  0  0  0  0  0  0  0  0  0  0  0
   -1.4791   -2.2946    0.5016 C   0  0  0  0  0  0  0  0  0  0  0  0
   -3.1471   -1.1959   -0.0915 H   0  0  0  0  0  0  0  0  0  0  0  0
   -3.8913    0.9436   -0.0247 H   0  0  0  0  0  0  0  0  0  0  0  0
   -3.6654    0.4080   -1.7109 H   0  0  0  0  0  0  0  0  0  0  0  0
   -3.0317    2.7677   -2.3348 H   0  0  0  0  0  0  0  0  0  0  0  0
   -3.3363    3.2624   -0.6679 H   0  0  0  0  0  0  0  0  0  0  0  0
   -5.4292    2.0305   -2.5468 H   0  0  0  0  0  0  0  0  0  0  0  0
   -5.2925    3.7507   -2.1494 H   0  0  0  0  0  0  0  0  0  0  0  0
   -5.6708    3.2195    0.0217 H   0  0  0  0  0  0  0  0  0  0  0  0
    2.2843   -2.0324    0.9441 H   0  0  0  0  0  0  0  0  0  0  0  0
    4.3707   -1.5172    1.4367 H   0  0  0  0  0  0  0  0  0  0  0  0
    6.3283   -0.0960    1.1732 H   0  0  0  0  0  0  0  0  0  0  0  0
    6.4713    2.8448   -1.0875 H   0  0  0  0  0  0  0  0  0  0  0  0
    6.5319    3.0174    0.6843 H   0  0  0  0  0  0  0  0  0  0  0  0
    7.4318    1.7161   -0.1324 H   0  0  0  0  0  0  0  0  0  0  0  0
    3.9792    2.7076   -1.0868 H   0  0  0  0  0  0  0  0  0  0  0  0
    1.0384    0.9806   -0.6804 H   0  0  0  0  0  0  0  0  0  0  0  0
    1.1252   -4.0071    1.4091 H   0  0  0  0  0  0  0  0  0  0  0  0
   -3.9747   -3.2430    0.5473 H   0  0  0  0  0  0  0  0  0  0  0  0
   -3.5350   -4.3167    1.9068 H   0  0  0  0  0  0  0  0  0  0  0  0
   -3.3389   -4.8801    0.2128 H   0  0  0  0  0  0  0  0  0  0  0  0
  1  2  1  0
  2  3  2  3
  3  4  1  0
  4  5  1  0
  5  6  1  0
  6  7  1  0
  2  8  1  0
  8  9  2  0
  9 10  1  0
 10 11  1  0
 11 12  2  0
 12 13  1  0
 13 14  2  0
 14 15  1  0
 14 16  1  0
 16 17  2  0
 17 18  1  0
  9 19  1  0
 19 20  1  0
 20 21  2  0
 21 22  1  0
 22 23  1  0
 22 24  1  0
 24  1  1  0
 17 11  1  0
 24 19  2  0
  1 25  1  0
  4 26  1  0
  4 27  1  0
  5 28  1  0
  5 29  1  0
  6 30  1  0
  6 31  1  0
  7 32  1  0
 10 33  1  0
 12 34  1  0
 13 35  1  0
 15 36  1  0
 15 37  1  0
 15 38  1  0
 16 39  1  0
 18 40  1  0
 20 41  1  0
 23 42  1  0
 23 43  1  0
 23 44  1  0
M  END
>  <ScrubInfo>  (4) 
{"isomerGroup": 0, "isomerId": 3, "confId": 0, "nr_conformers:": 1, "nr_isomers:": 9}

$$$$
_i4
     RDKit          3D

 44 46  0  0  0  0  0  0  0  0999 V2000
   -1.9994   -1.7816   -0.7380 N   0  0  0  0  0  0  0  0  0  0  0  0
   -1.2457   -0.6505   -0.9512 C   0  0  0  0  0  0  0  0  0  0  0  0
   -1.8952    0.3572   -1.6037 N   0  0  0  0  0  0  0  0  0  0  0  0
   -3.1253    0.9465   -1.0799 C   0  0  0  0  0  0  0  0  0  0  0  0
   -2.9354    1.5638    0.3094 C   0  0  0  0  0  0  0  0  0  0  0  0
   -2.0015    2.7672    0.3169 C   0  0  0  0  0  0  0  0  0  0  0  0
   -2.5339    3.8021   -0.5001 O   0  0  0  0  0  0  0  0  0  0  0  0
   -0.0037   -0.4828   -0.5910 N   0  0  0  0  0  0  0  0  0  0  0  0
    0.6448   -1.5033    0.0889 C   0  0  0  0  0  0  0  0  0  0  0  0
    1.8433   -1.4114    0.5735 N   0  0  0  0  0  0  0  0  0  0  0  0
    2.5410   -0.2037    0.3790 C   0  0  0  0  0  0  0  0  0  0  0  0
    3.1247    0.1204   -0.8464 C   0  0  0  0  0  0  0  0  0  0  0  0
    3.8212    1.3243   -0.9998 C   0  0  0  0  0  0  0  0  0  0  0  0
    3.9635    2.2099    0.0789 C   0  0  0  0  0  0  0  0  0  0  0  0
    4.6804    3.5152   -0.0996 C   0  0  0  0  0  0  0  0  0  0  0  0
    3.3847    1.8838    1.3112 C   0  0  0  0  0  0  0  0  0  0  0  0
    2.6969    0.6835    1.4508 C   0  0  0  0  0  0  0  0  0  0  0  0
    2.1684    0.3684    2.6753 O   0  0  0  0  0  0  0  0  0  0  0  0
   -0.0852   -2.7303    0.2817 C   0  0  0  0  0  0  0  0  0  0  0  0
    0.1856   -3.9886    0.8348 C   0  0  0  0  0  0  0  0  0  0  0  0
   -0.8697   -4.8162    0.7550 N   0  0  0  0  0  0  0  0  0  0  0  0
   -1.8210   -4.0712    0.1375 N   0  0  0  0  0  0  0  0  0  0  0  0
   -3.1121   -4.6559   -0.1192 C   0  0  0  0  0  0  0  0  0  0  0  0
   -1.3815   -2.8177   -0.1455 C   0  0  0  0  0  0  0  0  0  0  0  0
   -2.8684   -1.8540   -1.2499 H   0  0  0  0  0  0  0  0  0  0  0  0
   -1.2217    1.0955   -1.8106 H   0  0  0  0  0  0  0  0  0  0  0  0
   -3.9074    0.1802   -1.0310 H   0  0  0  0  0  0  0  0  0  0  0  0
   -3.4797    1.7021   -1.7896 H   0  0  0  0  0  0  0  0  0  0  0  0
   -3.9216    1.8835    0.6681 H   0  0  0  0  0  0  0  0  0  0  0  0
   -2.5622    0.8120    1.0139 H   0  0  0  0  0  0  0  0  0  0  0  0
   -1.8795    3.1546    1.3340 H   0  0  0  0  0  0  0  0  0  0  0  0
   -1.0075    2.5092   -0.0593 H   0  0  0  0  0  0  0  0  0  0  0  0
   -3.1987    4.2768    0.0288 H   0  0  0  0  0  0  0  0  0  0  0  0
    3.0261   -0.5594   -1.6874 H   0  0  0  0  0  0  0  0  0  0  0  0
    4.2532    1.5652   -1.9685 H   0  0  0  0  0  0  0  0  0  0  0  0
    5.1508    3.8340    0.8365 H   0  0  0  0  0  0  0  0  0  0  0  0
    5.4751    3.4251   -0.8477 H   0  0  0  0  0  0  0  0  0  0  0  0
    3.9759    4.2876   -0.4227 H   0  0  0  0  0  0  0  0  0  0  0  0
    3.4722    2.5510    2.1638 H   0  0  0  0  0  0  0  0  0  0  0  0
    1.8300   -0.5414    2.5573 H   0  0  0  0  0  0  0  0  0  0  0  0
    1.1029   -4.3428    1.2878 H   0  0  0  0  0  0  0  0  0  0  0  0
   -3.5267   -5.0090    0.8285 H   0  0  0  0  0  0  0  0  0  0  0  0
   -2.9797   -5.4896   -0.8132 H   0  0  0  0  0  0  0  0  0  0  0  0
   -3.7782   -3.9096   -0.5573 H   0  0  0  0  0  0  0  0  0  0  0  0
  1  2  1  0
  2  3  1  0
  3  4  1  0
  4  5  1  0
  5  6  1  0
  6  7  1  0
  2  8  2  0
  8  9  1  0
  9 10  2  3
 10 11  1  0
 11 12  2  0
 12 13  1  0
 13 14  2  0
 14 15  1  0
 14 16  1  0
 16 17  2  0
 17 18  1  0
  9 19  1  0
 19 20  1  0
 20 21  2  0
 21 22  1  0
 22 23  1  0
 22 24  1  0
 24  1  1  0
 17 11  1  0
 24 19  2  0
  1 25  1  0
  3 26  1  0
  4 27  1  0
  4 28  1  0
  5 29  1  0
  5 30  1  0
  6 31  1  0
  6 32  1  0
  7 33  1  0
 12 34  1  0
 13 35  1  0
 15 36  1  0
 15 37  1  0
 15 38  1  0
 16 39  1  0
 18 40  1  0
 20 41  1  0
 23 42  1  0
 23 43  1  0
 23 44  1  0
M  END
>  <ScrubInfo>  (5) 
{"isomerGroup": 0, "isomerId": 4, "confId": 0, "nr_conformers:": 1, "nr_isomers:": 9}

$$$$
_i5
     RDKit          3D

 44 46  0  0  0  0  0  0  0  0999 V2000
   -1.2114   -2.6799   -0.9654 N   0  0  0  0  0  0  0  0  0  0  0  0
   -1.5961   -1.3858   -0.6297 C   0  0  0  0  0  0  0  0  0  0  0  0
   -0.5812   -0.6192   -0.2017 C   0  0  0  0  0  0  0  0  0  0  0  0
   -0.3389    0.7454    0.2498 C   0  0  0  0  0  0  0  0  0  0  0  0
   -1.1505    1.7351    0.4310 N   0  0  0  0  0  0  0  0  0  0  0  0
   -2.5171    1.5885    0.1606 C   0  0  0  0  0  0  0  0  0  0  0  0
   -3.0316    1.8210   -1.1145 C   0  0  0  0  0  0  0  0  0  0  0  0
   -4.4000    1.6641   -1.3589 C   0  0  0  0  0  0  0  0  0  0  0  0
   -5.2731    1.2976   -0.3231 C   0  0  0  0  0  0  0  0  0  0  0  0
   -6.7351    1.1010   -0.5964 C   0  0  0  0  0  0  0  0  0  0  0  0
   -4.7585    1.0787    0.9609 C   0  0  0  0  0  0  0  0  0  0  0  0
   -3.3982    1.2442    1.1918 C   0  0  0  0  0  0  0  0  0  0  0  0
   -2.9169    1.0668    2.4612 O   0  0  0  0  0  0  0  0  0  0  0  0
    0.9735    1.0130    0.5350 N   0  0  0  0  0  0  0  0  0  0  0  0
    1.9192    0.1259    0.4389 C   0  0  0  0  0  0  0  0  0  0  0  0
    3.1776    0.5621    0.7399 N   0  0  0  0  0  0  0  0  0  0  0  0
    4.2215   -0.3273    1.2041 C   0  0  0  0  0  0  0  0  0  0  0  0
    5.5669    0.3896    1.2085 C   0  0  0  0  0  0  0  0  0  0  0  0
    6.0737    0.6725   -0.1997 C   0  0  0  0  0  0  0  0  0  0  0  0
    7.3575    1.2833   -0.1281 O   0  0  0  0  0  0  0  0  0  0  0  0
    1.7473   -1.1818    0.0776 N   0  0  0  0  0  0  0  0  0  0  0  0
    0.5544   -1.5611   -0.2213 C   0  0  0  0  0  0  0  0  0  0  0  0
    0.1181   -2.8312   -0.6002 N   0  0  0  0  0  0  0  0  0  0  0  0
    0.9681   -3.7103   -1.3801 C   0  0  0  0  0  0  0  0  0  0  0  0
   -1.8576   -3.3936   -0.6193 H   0  0  0  0  0  0  0  0  0  0  0  0
   -2.6389   -1.1230   -0.7308 H   0  0  0  0  0  0  0  0  0  0  0  0
   -2.3662    2.1217   -1.9190 H   0  0  0  0  0  0  0  0  0  0  0  0
   -4.7821    1.8386   -2.3626 H   0  0  0  0  0  0  0  0  0  0  0  0
   -6.9239    0.0644   -0.8916 H   0  0  0  0  0  0  0  0  0  0  0  0
   -7.0753    1.7653   -1.3977 H   0  0  0  0  0  0  0  0  0  0  0  0
   -7.3333    1.3310    0.2916 H   0  0  0  0  0  0  0  0  0  0  0  0
   -5.4096    0.7973    1.7839 H   0  0  0  0  0  0  0  0  0  0  0  0
   -1.9991    1.4074    2.4228 H   0  0  0  0  0  0  0  0  0  0  0  0
    3.1382    1.4684    1.1934 H   0  0  0  0  0  0  0  0  0  0  0  0
    4.2872   -1.2225    0.5750 H   0  0  0  0  0  0  0  0  0  0  0  0
    3.9834   -0.6543    2.2226 H   0  0  0  0  0  0  0  0  0  0  0  0
    5.5067    1.3275    1.7748 H   0  0  0  0  0  0  0  0  0  0  0  0
    6.3059   -0.2295    1.7324 H   0  0  0  0  0  0  0  0  0  0  0  0
    6.1773   -0.2562   -0.7695 H   0  0  0  0  0  0  0  0  0  0  0  0
    5.4034    1.3401   -0.7503 H   0  0  0  0  0  0  0  0  0  0  0  0
    7.2369    2.1688    0.2557 H   0  0  0  0  0  0  0  0  0  0  0  0
    1.1580   -3.2885   -2.3726 H   0  0  0  0  0  0  0  0  0  0  0  0
    1.9272   -3.8662   -0.8759 H   0  0  0  0  0  0  0  0  0  0  0  0
    0.4927   -4.6889   -1.5030 H   0  0  0  0  0  0  0  0  0  0  0  0
  1  2  1  0
  2  3  2  0
  3  4  1  0
  4  5  2  3
  5  6  1  0
  6  7  2  0
  7  8  1  0
  8  9  2  0
  9 10  1  0
  9 11  1  0
 11 12  2  0
 12 13  1  0
  4 14  1  0
 14 15  2  0
 15 16  1  0
 16 17  1  0
 17 18  1  0
 18 19  1  0
 19 20  1  0
 15 21  1  0
 21 22  2  0
 22 23  1  0
 23 24  1  0
 23  1  1  0
 22  3  1  0
 12  6  1  0
  1 25  1  0
  2 26  1  0
  7 27  1  0
  8 28  1  0
 10 29  1  0
 10 30  1  0
 10 31  1  0
 11 32  1  0
 13 33  1  0
 16 34  1  0
 17 35  1  0
 17 36  1  0
 18 37  1  0
 18 38  1  0
 19 39  1  0
 19 40  1  0
 20 41  1  0
 24 42  1  0
 24 43  1  0
 24 44  1  0
M  END
>  <ScrubInfo>  (6) 
{"isomerGroup": 0, "isomerId": 5, "confId": 0, "nr_conformers:": 1, "nr_isomers:": 9}

$$$$
_i6
     RDKit          3D

 44 46  0  0  0  0  0  0  0  0999 V2000
   -0.8226   -3.5183    0.8830 N   0  0  0  0  0  0  0  0  0  0  0  0
   -1.2211   -2.4798    0.0482 C   0  0  0  0  0  0  0  0  0  0  0  0
   -0.2474   -1.5871   -0.1732 C   0  0  0  0  0  0  0  0  0  0  0  0
   -0.0431   -0.3342   -0.8947 C   0  0  0  0  0  0  0  0  0  0  0  0
   -1.0086    0.2703   -1.6734 N   0  0  0  0  0  0  0  0  0  0  0  0
   -2.3090    0.5222   -1.1740 C   0  0  0  0  0  0  0  0  0  0  0  0
   -3.4033    0.2154   -1.9910 C   0  0  0  0  0  0  0  0  0  0  0  0
   -4.7091    0.4775   -1.5657 C   0  0  0  0  0  0  0  0  0  0  0  0
   -4.9436    1.0694   -0.3197 C   0  0  0  0  0  0  0  0  0  0  0  0
   -6.3418    1.3794    0.1263 C   0  0  0  0  0  0  0  0  0  0  0  0
   -3.8507    1.4357    0.4736 C   0  0  0  0  0  0  0  0  0  0  0  0
   -2.5505    1.1794    0.0412 C   0  0  0  0  0  0  0  0  0  0  0  0
   -1.5436    1.6280    0.8517 O   0  0  0  0  0  0  0  0  0  0  0  0
    1.1147    0.2605   -0.8014 N   0  0  0  0  0  0  0  0  0  0  0  0
    2.0977   -0.3226   -0.0227 C   0  0  0  0  0  0  0  0  0  0  0  0
    3.2165    0.2903    0.1375 N   0  0  0  0  0  0  0  0  0  0  0  0
    3.3998    1.5784   -0.5202 C   0  0  0  0  0  0  0  0  0  0  0  0
    4.7794    2.1294   -0.1691 C   0  0  0  0  0  0  0  0  0  0  0  0
    5.9113    1.2645   -0.7100 C   0  0  0  0  0  0  0  0  0  0  0  0
    7.1654    1.8955   -0.4619 O   0  0  0  0  0  0  0  0  0  0  0  0
    2.0252   -1.5276    0.6315 N   0  0  0  0  0  0  0  0  0  0  0  0
    0.9035   -2.1548    0.5595 C   0  0  0  0  0  0  0  0  0  0  0  0
    0.5438   -3.3855    1.1091 N   0  0  0  0  0  0  0  0  0  0  0  0
    1.0973   -3.8222    2.3772 C   0  0  0  0  0  0  0  0  0  0  0  0
   -1.1410   -4.4391    0.5729 H   0  0  0  0  0  0  0  0  0  0  0  0
   -2.2307   -2.4712   -0.3369 H   0  0  0  0  0  0  0  0  0  0  0  0
   -0.6449    1.1226   -2.0961 H   0  0  0  0  0  0  0  0  0  0  0  0
   -3.2443   -0.2476   -2.9624 H   0  0  0  0  0  0  0  0  0  0  0  0
   -5.5425    0.2177   -2.2153 H   0  0  0  0  0  0  0  0  0  0  0  0
   -6.6305    2.3785   -0.2142 H   0  0  0  0  0  0  0  0  0  0  0  0
   -7.0510    0.6490   -0.2770 H   0  0  0  0  0  0  0  0  0  0  0  0
   -6.4209    1.3400    1.2178 H   0  0  0  0  0  0  0  0  0  0  0  0
   -4.0039    1.9378    1.4261 H   0  0  0  0  0  0  0  0  0  0  0  0
   -0.6974    1.5693    0.3756 H   0  0  0  0  0  0  0  0  0  0  0  0
    3.3143    1.4797   -1.6093 H   0  0  0  0  0  0  0  0  0  0  0  0
    2.6458    2.2960   -0.1743 H   0  0  0  0  0  0  0  0  0  0  0  0
    4.8876    2.2275    0.9184 H   0  0  0  0  0  0  0  0  0  0  0  0
    4.8743    3.1448   -0.5733 H   0  0  0  0  0  0  0  0  0  0  0  0
    5.9291    0.2839   -0.2252 H   0  0  0  0  0  0  0  0  0  0  0  0
    5.8152    1.1123   -1.7899 H   0  0  0  0  0  0  0  0  0  0  0  0
    7.1454    2.7635   -0.8979 H   0  0  0  0  0  0  0  0  0  0  0  0
    0.7719   -3.1653    3.1906 H   0  0  0  0  0  0  0  0  0  0  0  0
    0.7719   -4.8429    2.6028 H   0  0  0  0  0  0  0  0  0  0  0  0
    2.1914   -3.8207    2.3411 H   0  0  0  0  0  0  0  0  0  0  0  0
  1  2  1  0
  2  3  2  0
  3  4  1  0
  4  5  1  0
  5  6  1  0
  6  7  2  0
  7  8  1  0
  8  9  2  0
  9 10  1  0
  9 11  1  0
 11 12  2  0
 12 13  1  0
  4 14  2  0
 14 15  1  0
 15 16  2  3
 16 17  1  0
 17 18  1  0
 18 19  1  0
 19 20  1  0
 15 21  1  0
 21 22  2  0
 22 23  1  0
 23 24  1  0
 23  1  1  0
 22  3  1  0
 12  6  1  0
  1 25  1  0
  2 26  1  0
  5 27  1  0
  7 28  1  0
  8 29  1  0
 10 30  1  0
 10 31  1  0
 10 32  1  0
 11 33  1  0
 13 34  1  0
 17 35  1  0
 17 36  1  0
 18 37  1  0
 18 38  1  0
 19 39  1  0
 19 40  1  0
 20 41  1  0
 24 42  1  0
 24 43  1  0
 24 44  1  0
M  END
>  <ScrubInfo>  (7) 
{"isomerGroup": 0, "isomerId": 6, "confId": 0, "nr_conformers:": 1, "nr_isomers:": 9}

$$$$
_i7
     RDKit          3D

 44 46  0  0  0  0  0  0  0  0999 V2000
   -1.9675   -1.4207    0.0170 N   0  0  0  0  0  0  0  0  0  0  0  0
   -1.2570   -0.2348   -0.1093 C   0  0  0  0  0  0  0  0  0  0  0  0
   -1.7278    0.9496   -0.3178 N   0  0  0  0  0  0  0  0  0  0  0  0
   -3.1716    1.1151   -0.4436 C   0  0  0  0  0  0  0  0  0  0  0  0
   -3.4593    2.5880   -0.7156 C   0  0  0  0  0  0  0  0  0  0  0  0
   -4.9538    2.8557   -0.8089 C   0  0  0  0  0  0  0  0  0  0  0  0
   -5.1903    4.2253   -1.1064 O   0  0  0  0  0  0  0  0  0  0  0  0
    0.1095   -0.3912    0.0086 N   0  0  0  0  0  0  0  0  0  0  0  0
    0.8856   -1.5170    0.1972 C   0  0  0  0  0  0  0  0  0  0  0  0
    2.1610   -1.6805    0.3102 N   0  0  0  0  0  0  0  0  0  0  0  0
    3.0130   -0.5639    0.2426 C   0  0  0  0  0  0  0  0  0  0  0  0
    3.8305   -0.2973    1.3433 C   0  0  0  0  0  0  0  0  0  0  0  0
    4.7293    0.7735    1.3289 C   0  0  0  0  0  0  0  0  0  0  0  0
    4.8274    1.6020    0.2052 C   0  0  0  0  0  0  0  0  0  0  0  0
    5.8164    2.7301    0.1790 C   0  0  0  0  0  0  0  0  0  0  0  0
    4.0342    1.3267   -0.9155 C   0  0  0  0  0  0  0  0  0  0  0  0
    3.1391    0.2542   -0.8917 C   0  0  0  0  0  0  0  0  0  0  0  0
    2.3520    0.0090   -1.9863 O   0  0  0  0  0  0  0  0  0  0  0  0
    0.0528   -2.6941    0.2944 C   0  0  0  0  0  0  0  0  0  0  0  0
    0.2909   -4.0644    0.4743 C   0  0  0  0  0  0  0  0  0  0  0  0
   -0.8445   -4.7798    0.4994 N   0  0  0  0  0  0  0  0  0  0  0  0
   -1.8165   -3.8502    0.3328 N   0  0  0  0  0  0  0  0  0  0  0  0
   -3.1913   -4.2804    0.3028 C   0  0  0  0  0  0  0  0  0  0  0  0
   -1.3140   -2.5906    0.2045 C   0  0  0  0  0  0  0  0  0  0  0  0
   -2.9722   -1.3691   -0.0703 H   0  0  0  0  0  0  0  0  0  0  0  0
   -3.6721    0.8091    0.4828 H   0  0  0  0  0  0  0  0  0  0  0  0
   -3.5591    0.5100   -1.2719 H   0  0  0  0  0  0  0  0  0  0  0  0
   -2.9681    2.9062   -1.6439 H   0  0  0  0  0  0  0  0  0  0  0  0
   -3.0224    3.2124    0.0743 H   0  0  0  0  0  0  0  0  0  0  0  0
   -5.4090    2.2567   -1.6038 H   0  0  0  0  0  0  0  0  0  0  0  0
   -5.4590    2.6154    0.1321 H   0  0  0  0  0  0  0  0  0  0  0  0
   -4.7319    4.7568   -0.4328 H   0  0  0  0  0  0  0  0  0  0  0  0
    0.6227    0.4638   -0.1455 H   0  0  0  0  0  0  0  0  0  0  0  0
    3.7701   -0.9388    2.2190 H   0  0  0  0  0  0  0  0  0  0  0  0
    5.3550    0.9504    2.2011 H   0  0  0  0  0  0  0  0  0  0  0  0
    5.4559    3.5506   -0.4503 H   0  0  0  0  0  0  0  0  0  0  0  0
    6.7753    2.3777   -0.2131 H   0  0  0  0  0  0  0  0  0  0  0  0
    5.9723    3.1365    1.1838 H   0  0  0  0  0  0  0  0  0  0  0  0
    4.1163    1.9561   -1.7972 H   0  0  0  0  0  0  0  0  0  0  0  0
    2.7220    0.4827   -2.7490 H   0  0  0  0  0  0  0  0  0  0  0  0
    1.2411   -4.5708    0.5869 H   0  0  0  0  0  0  0  0  0  0  0  0
   -3.8539   -3.4165    0.3849 H   0  0  0  0  0  0  0  0  0  0  0  0
   -3.3650   -4.9539    1.1462 H   0  0  0  0  0  0  0  0  0  0  0  0
   -3.3659   -4.7995   -0.6428 H   0  0  0  0  0  0  0  0  0  0  0  0
  1  2  1  0
  2  3  2  3
  3  4  1  0
  4  5  1  0
  5  6  1  0
  6  7  1  0
  2  8  1  0
  8  9  1  0
  9 10  2  3
 10 11  1  0
 11 12  2  0
 12 13  1  0
 13 14  2  0
 14 15  1  0
 14 16  1  0
 16 17  2  0
 17 18  1  0
  9 19  1  0
 19 20  1  0
 20 21  2  0
 21 22  1  0
 22 23  1  0
 22 24  1  0
 24  1  1  0
 17 11  1  0
 24 19  2  0
  1 25  1  0
  4 26  1  0
  4 27  1  0
  5 28  1  0
  5 29  1  0
  6 30  1  0
  6 31  1  0
  7 32  1  0
  8 33  1  0
 12 34  1  0
 13 35  1  0
 15 36  1  0
 15 37  1  0
 15 38  1  0
 16 39  1  0
 18 40  1  0
 20 41  1  0
 23 42  1  0
 23 43  1  0
 23 44  1  0
M  END
>  <ScrubInfo>  (8) 
{"isomerGroup": 0, "isomerId": 7, "confId": 0, "nr_conformers:": 1, "nr_isomers:": 9}

$$$$
_i8
     RDKit          3D

 44 46  0  0  0  0  0  0  0  0999 V2000
   -1.1382   -2.6834    1.0213 N   0  0  0  0  0  0  0  0  0  0  0  0
   -1.5489   -1.4292    0.5853 C   0  0  0  0  0  0  0  0  0  0  0  0
   -0.5353   -0.6305    0.2222 C   0  0  0  0  0  0  0  0  0  0  0  0
   -0.2947    0.7141   -0.3391 C   0  0  0  0  0  0  0  0  0  0  0  0
   -1.1463    1.6610   -0.6090 N   0  0  0  0  0  0  0  0  0  0  0  0
   -2.5084    1.4977   -0.3132 C   0  0  0  0  0  0  0  0  0  0  0  0
   -3.0089    1.7862    0.9567 C   0  0  0  0  0  0  0  0  0  0  0  0
   -4.3709    1.6218    1.2305 C   0  0  0  0  0  0  0  0  0  0  0  0
   -5.2497    1.1703    0.2344 C   0  0  0  0  0  0  0  0  0  0  0  0
   -6.7157    1.0304    0.5214 C   0  0  0  0  0  0  0  0  0  0  0  0
   -4.7551    0.9209   -1.0516 C   0  0  0  0  0  0  0  0  0  0  0  0
   -3.4008    1.0938   -1.3127 C   0  0  0  0  0  0  0  0  0  0  0  0
   -2.9427    0.8654   -2.5821 O   0  0  0  0  0  0  0  0  0  0  0  0
    1.0311    0.9361   -0.5959 N   0  0  0  0  0  0  0  0  0  0  0  0
    2.0769    0.0910   -0.3540 C   0  0  0  0  0  0  0  0  0  0  0  0
    3.2691    0.4833   -0.6681 N   0  0  0  0  0  0  0  0  0  0  0  0
    4.3679   -0.4449   -0.3931 C   0  0  0  0  0  0  0  0  0  0  0  0
    5.6801    0.2015   -0.8258 C   0  0  0  0  0  0  0  0  0  0  0  0
    6.0434    1.4059    0.0324 C   0  0  0  0  0  0  0  0  0  0  0  0
    7.3004    1.9304   -0.3848 O   0  0  0  0  0  0  0  0  0  0  0  0
    1.8855   -1.1487    0.2163 N   0  0  0  0  0  0  0  0  0  0  0  0
    0.6683   -1.4924    0.5032 C   0  0  0  0  0  0  0  0  0  0  0  0
    0.2467   -2.6873    1.0913 N   0  0  0  0  0  0  0  0  0  0  0  0
    0.9602   -3.9285    0.8559 C   0  0  0  0  0  0  0  0  0  0  0  0
   -1.6374   -3.0114    1.8513 H   0  0  0  0  0  0  0  0  0  0  0  0
   -2.6082   -1.2183    0.5692 H   0  0  0  0  0  0  0  0  0  0  0  0
   -2.3393    2.1433    1.7341 H   0  0  0  0  0  0  0  0  0  0  0  0
   -4.7437    1.8558    2.2256 H   0  0  0  0  0  0  0  0  0  0  0  0
   -7.2287    1.9753    0.3179 H   0  0  0  0  0  0  0  0  0  0  0  0
   -7.1613    0.2445   -0.0976 H   0  0  0  0  0  0  0  0  0  0  0  0
   -6.8836    0.7539    1.5675 H   0  0  0  0  0  0  0  0  0  0  0  0
   -5.4173    0.6054   -1.8534 H   0  0  0  0  0  0  0  0  0  0  0  0
   -2.0183    1.1837   -2.5693 H   0  0  0  0  0  0  0  0  0  0  0  0
    1.2829    1.8345   -0.9797 H   0  0  0  0  0  0  0  0  0  0  0  0
    4.4177   -0.6954    0.6735 H   0  0  0  0  0  0  0  0  0  0  0  0
    4.2341   -1.3702   -0.9666 H   0  0  0  0  0  0  0  0  0  0  0  0
    5.6281    0.5040   -1.8793 H   0  0  0  0  0  0  0  0  0  0  0  0
    6.4886   -0.5373   -0.7642 H   0  0  0  0  0  0  0  0  0  0  0  0
    6.1329    1.1214    1.0854 H   0  0  0  0  0  0  0  0  0  0  0  0
    5.2973    2.2029   -0.0455 H   0  0  0  0  0  0  0  0  0  0  0  0
    7.1937    2.2203   -1.3070 H   0  0  0  0  0  0  0  0  0  0  0  0
    2.0157   -3.8241    1.1269 H   0  0  0  0  0  0  0  0  0  0  0  0
    0.8954   -4.2207   -0.1974 H   0  0  0  0  0  0  0  0  0  0  0  0
    0.5371   -4.7326    1.4668 H   0  0  0  0  0  0  0  0  0  0  0  0
  1  2  1  0
  2  3  2  0
  3  4  1  0
  4  5  2  3
  5  6  1  0
  6  7  2  0
  7  8  1  0
  8  9  2  0
  9 10  1  0
  9 11  1  0
 11 12  2  0
 12 13  1  0
  4 14  1  0
 14 15  1  0
 15 16  2  3
 16 17  1  0
 17 18  1  0
 18 19  1  0
 19 20  1  0
 15 21  1  0
 21 22  2  0
 22 23  1  0
 23 24  1  0
 23  1  1  0
 22  3  1  0
 12  6  1  0
  1 25  1  0
  2 26  1  0
  7 27  1  0
  8 28  1  0
 10 29  1  0
 10 30  1  0
 10 31  1  0
 11 32  1  0
 13 33  1  0
 14 34  1  0
 17 35  1  0
 17 36  1  0
 18 37  1  0
 18 38  1  0
 19 39  1  0
 19 40  1  0
 20 41  1  0
 24 42  1  0
 24 43  1  0
 24 44  1  0
M  END
>  <ScrubInfo>  (9) 
{"isomerGroup": 0, "isomerId": 8, "confId": 0, "nr_conformers:": 1, "nr_isomers:": 9}

$$$$
