REMARK SMILES Cc1ccc(Nc2nc(NCCCO)nc3c2cnn3C)c(O)c1
REMARK SMILES IDX 10 1 9 3 7 4 8 5 17 6 16 7 18 8 15 9 20 10 19 11 21 12 6 13
REMARK SMILES IDX 5 15 2 16 3 17 24 18 4 19 22 20 1 21 23 22 11 24 12 25 13 26
REMARK SMILES IDX 14 27
REMARK H PARENT 10 2 6 14 23 23 14 28
ROOT
ATOM      1  N   UNL     1      -2.536  -0.277   0.269  1.00  0.00    -0.354 N 
ATOM      2  H   UNL     1      -1.964  -1.115   0.213  1.00  0.00     0.163 HD
ENDROOT
BRANCH   1   3
ATOM      3  C   UNL     1      -1.630   0.753   0.014  1.00  0.00     0.226 A 
ATOM      4  C   UNL     1       0.658   1.295  -0.077  1.00  0.00     0.147 A 
ATOM      5  N   UNL     1      -0.339   0.395   0.132  1.00  0.00    -0.195 NA
ATOM      6  C   UNL     1       0.269   2.597  -0.418  1.00  0.00     0.082 A 
ATOM      7  C   UNL     1      -1.085   2.850  -0.512  1.00  0.00     0.165 A 
ATOM      8  C   UNL     1       0.877   3.833  -0.722  1.00  0.00     0.149 A 
ATOM      9  N   UNL     1      -2.078   1.973  -0.311  1.00  0.00    -0.193 NA
ATOM     10  N   UNL     1      -1.200   4.171  -0.847  1.00  0.00    -0.250 N 
ATOM     11  N   UNL     1      -0.009   4.800  -0.988  1.00  0.00    -0.179 NA
ATOM     12  C   UNL     1      -2.420   4.910  -1.052  1.00  0.00     0.176 C 
BRANCH   4  13
ATOM     13  N   UNL     1       2.007   0.950   0.034  1.00  0.00    -0.336 N 
ATOM     14  H   UNL     1       2.669   1.694  -0.161  1.00  0.00     0.168 HD
BRANCH  13  15
ATOM     15  C   UNL     1       2.679  -0.240   0.364  1.00  0.00     0.082 A 
ATOM     16  C   UNL     1       4.197  -2.547   1.007  1.00  0.00    -0.047 A 
ATOM     17  C   UNL     1       2.797  -2.580   1.017  1.00  0.00     0.006 A 
ATOM     18  C   UNL     1       4.843  -1.359   0.655  1.00  0.00     0.051 A 
ATOM     19  C   UNL     1       2.049  -1.437   0.704  1.00  0.00     0.030 A 
ATOM     20  C   UNL     1       4.086  -0.227   0.345  1.00  0.00     0.139 A 
ATOM     21  C   UNL     1       4.986  -3.785   1.310  1.00  0.00     0.044 C 
BRANCH  20  22
ATOM     22  O   UNL     1       4.708   0.952   0.005  1.00  0.00    -0.506 OA
ATOM     23  H   UNL     1       5.668   0.803   0.036  1.00  0.00     0.293 HD
ENDBRANCH  20  22
ENDBRANCH  13  15
ENDBRANCH   4  13
ENDBRANCH   1   3
BRANCH   1  24
ATOM     24  C   UNL     1      -3.696  -0.277  -0.609  1.00  0.00     0.118 C 
BRANCH  24  25
ATOM     25  C   UNL     1      -4.676  -1.378  -0.193  1.00  0.00     0.049 C 
BRANCH  25  26
ATOM     26  C   UNL     1      -4.181  -2.784  -0.505  1.00  0.00     0.158 C 
BRANCH  26  27
ATOM     27  O   UNL     1      -4.032  -2.964  -1.907  1.00  0.00    -0.396 OA
ATOM     28  H   UNL     1      -4.923  -2.971  -2.298  1.00  0.00     0.210 HD
ENDBRANCH  26  27
ENDBRANCH  25  26
ENDBRANCH  24  25
ENDBRANCH   1  24
TORSDOF 8
