REMARK SMILES CC[C@@H](CNc1cc(-c2ccccc2)nc2ccnn12)OC
REMARK SMILES IDX 4 1 3 2 2 3 1 4 21 5 22 6 5 7 6 9 7 10 20 11 8 12 19 13
REMARK SMILES IDX 16 14 15 15 18 16 17 17 9 18 10 19 14 20 11 21 13 22 12 23
REMARK H PARENT 5 8
ROOT
ATOM      1  C   UNL     1       2.403   0.072  -1.154  1.00  0.00     0.146 C 
ENDROOT
BRANCH   1   2
ATOM      2  C   UNL     1       3.156   0.266   0.181  1.00  0.00     0.136 C 
BRANCH   2   3
ATOM      3  C   UNL     1       3.113   1.718   0.698  1.00  0.00     0.030 C 
ATOM      4  C   UNL     1       3.729   2.746  -0.243  1.00  0.00     0.007 C 
ENDBRANCH   2   3
BRANCH   2   5
ATOM      5  O   UNL     1       4.543  -0.094   0.048  1.00  0.00    -0.380 OA
ATOM      6  C   UNL     1       4.754  -1.500   0.095  1.00  0.00     0.195 C 
ENDBRANCH   2   5
ENDBRANCH   1   2
BRANCH   1   7
ATOM      7  N   UNL     1       0.999   0.460  -1.081  1.00  0.00    -0.367 N 
ATOM      8  H   UNL     1       0.824   1.440  -1.281  1.00  0.00     0.162 HD
BRANCH   7   9
ATOM      9  C   UNL     1      -0.063  -0.230  -0.486  1.00  0.00     0.132 A 
ATOM     10  C   UNL     1      -1.269   0.360  -0.363  1.00  0.00     0.075 A 
ATOM     11  N   UNL     1       0.066  -1.568  -0.005  1.00  0.00    -0.199 N 
ATOM     12  C   UNL     1      -2.374  -0.424   0.274  1.00  0.00     0.076 A 
ATOM     13  N   UNL     1       1.168  -2.383   0.004  1.00  0.00    -0.173 NA
ATOM     14  C   UNL     1      -1.036  -2.232   0.562  1.00  0.00     0.157 A 
ATOM     15  N   UNL     1      -2.262  -1.651   0.694  1.00  0.00    -0.228 NA
ATOM     16  C   UNL     1       0.748  -3.523   0.550  1.00  0.00     0.138 A 
ATOM     17  C   UNL     1      -0.601  -3.488   0.915  1.00  0.00     0.071 A 
BRANCH  12  18
ATOM     18  C   UNL     1      -3.690   0.265   0.402  1.00  0.00     0.000 A 
ATOM     19  C   UNL     1      -4.859  -0.489   0.238  1.00  0.00     0.010 A 
ATOM     20  C   UNL     1      -3.785   1.628   0.711  1.00  0.00     0.010 A 
ATOM     21  C   UNL     1      -6.110   0.119   0.353  1.00  0.00     0.001 A 
ATOM     22  C   UNL     1      -5.039   2.232   0.827  1.00  0.00     0.001 A 
ATOM     23  C   UNL     1      -6.199   1.480   0.644  1.00  0.00     0.000 A 
ENDBRANCH  12  18
ENDBRANCH   7   9
ENDBRANCH   1   7
TORSDOF 6
