_i0
     RDKit          3D

 42 44  0  0  0  0  0  0  0  0999 V2000
    3.7294    2.7457   -0.2428 C   0  0  0  0  0  0  0  0  0  0  0  0
    3.1133    1.7175    0.6977 C   0  0  0  0  0  0  0  0  0  0  0  0
    3.1558    0.2661    0.1814 C   0  0  0  0  0  0  0  0  0  0  0  0
    2.4028    0.0725   -1.1544 C   0  0  0  0  0  0  0  0  0  0  0  0
    0.9988    0.4600   -1.0810 N   0  0  0  0  0  0  0  0  0  0  0  0
   -0.0631   -0.2296   -0.4857 C   0  0  0  0  0  0  0  0  0  0  0  0
   -1.2693    0.3605   -0.3633 C   0  0  0  0  0  0  0  0  0  0  0  0
   -2.3737   -0.4236    0.2741 C   0  0  0  0  0  0  0  0  0  0  0  0
   -3.6902    0.2649    0.4024 C   0  0  0  0  0  0  0  0  0  0  0  0
   -4.8591   -0.4894    0.2379 C   0  0  0  0  0  0  0  0  0  0  0  0
   -6.1101    0.1190    0.3534 C   0  0  0  0  0  0  0  0  0  0  0  0
   -6.1990    1.4797    0.6438 C   0  0  0  0  0  0  0  0  0  0  0  0
   -5.0392    2.2324    0.8270 C   0  0  0  0  0  0  0  0  0  0  0  0
   -3.7850    1.6278    0.7114 C   0  0  0  0  0  0  0  0  0  0  0  0
   -2.2618   -1.6506    0.6938 N   0  0  0  0  0  0  0  0  0  0  0  0
   -1.0355   -2.2322    0.5622 C   0  0  0  0  0  0  0  0  0  0  0  0
   -0.6005   -3.4879    0.9149 C   0  0  0  0  0  0  0  0  0  0  0  0
    0.7481   -3.5229    0.5498 C   0  0  0  0  0  0  0  0  0  0  0  0
    1.1682   -2.3834    0.0041 N   0  0  0  0  0  0  0  0  0  0  0  0
    0.0655   -1.5681   -0.0046 N   0  0  0  0  0  0  0  0  0  0  0  0
    4.5425   -0.0939    0.0476 O   0  0  0  0  0  0  0  0  0  0  0  0
    4.7543   -1.5005    0.0949 C   0  0  0  0  0  0  0  0  0  0  0  0
    4.7615    2.4877   -0.4986 H   0  0  0  0  0  0  0  0  0  0  0  0
    3.1543    2.8378   -1.1685 H   0  0  0  0  0  0  0  0  0  0  0  0
    3.7393    3.7300    0.2368 H   0  0  0  0  0  0  0  0  0  0  0  0
    3.6685    1.7624    1.6433 H   0  0  0  0  0  0  0  0  0  0  0  0
    2.0808    2.0081    0.9227 H   0  0  0  0  0  0  0  0  0  0  0  0
    2.7032   -0.3548    0.9641 H   0  0  0  0  0  0  0  0  0  0  0  0
    2.4985   -0.9507   -1.5286 H   0  0  0  0  0  0  0  0  0  0  0  0
    2.8872    0.6737   -1.9334 H   0  0  0  0  0  0  0  0  0  0  0  0
    0.8243    1.4402   -1.2813 H   0  0  0  0  0  0  0  0  0  0  0  0
   -1.4636    1.3555   -0.7370 H   0  0  0  0  0  0  0  0  0  0  0  0
   -4.7989   -1.5532    0.0171 H   0  0  0  0  0  0  0  0  0  0  0  0
   -7.0138   -0.4707    0.2213 H   0  0  0  0  0  0  0  0  0  0  0  0
   -7.1742    1.9515    0.7378 H   0  0  0  0  0  0  0  0  0  0  0  0
   -5.1132    3.2896    1.0705 H   0  0  0  0  0  0  0  0  0  0  0  0
   -2.8984    2.2284    0.8922 H   0  0  0  0  0  0  0  0  0  0  0  0
   -1.1939   -4.2626    1.3765 H   0  0  0  0  0  0  0  0  0  0  0  0
    1.4508   -4.3386    0.6612 H   0  0  0  0  0  0  0  0  0  0  0  0
    5.8321   -1.6817    0.0564 H   0  0  0  0  0  0  0  0  0  0  0  0
    4.3682   -1.9188    1.0293 H   0  0  0  0  0  0  0  0  0  0  0  0
    4.2952   -1.9981   -0.7627 H   0  0  0  0  0  0  0  0  0  0  0  0
  1  2  1  0
  2  3  1  0
  3  4  1  0
  4  5  1  0
  5  6  1  0
  6  7  2  0
  7  8  1  0
  8  9  1  0
  9 10  2  0
 10 11  1  0
 11 12  2  0
 12 13  1  0
 13 14  2  0
  8 15  2  0
 15 16  1  0
 16 17  2  0
 17 18  1  0
 18 19  2  0
 19 20  1  0
  3 21  1  0
 21 22  1  0
 20  6  1  0
 14  9  1  0
 20 16  1  0
  1 23  1  0
  1 24  1  0
  1 25  1  0
  2 26  1  0
  2 27  1  0
  3 28  1  0
  4 29  1  0
  4 30  1  0
  5 31  1  0
  7 32  1  0
 10 33  1  0
 11 34  1  0
 12 35  1  0
 13 36  1  0
 14 37  1  0
 17 38  1  0
 18 39  1  0
 22 40  1  0
 22 41  1  0
 22 42  1  0
M  END
>  <ScrubInfo>  (1) 
{"isomerGroup": 0, "isomerId": 0, "confId": 0, "nr_conformers:": 1, "nr_isomers:": 3}

$$$$
_i1
     RDKit          3D

 42 44  0  0  0  0  0  0  0  0999 V2000
   -2.3211   -0.7546   -1.4671 N   0  0  0  0  0  0  0  0  0  0  0  0
   -2.1912    0.1781   -0.4564 C   0  0  0  0  0  0  0  0  0  0  0  0
   -3.3971    0.9249   -0.0600 C   0  0  0  0  0  0  0  0  0  0  0  0
   -3.4507    2.3203   -0.1803 C   0  0  0  0  0  0  0  0  0  0  0  0
   -4.6030    3.0179    0.1887 C   0  0  0  0  0  0  0  0  0  0  0  0
   -5.7102    2.3275    0.6791 C   0  0  0  0  0  0  0  0  0  0  0  0
   -5.6683    0.9397    0.8012 C   0  0  0  0  0  0  0  0  0  0  0  0
   -4.5173    0.2403    0.4320 C   0  0  0  0  0  0  0  0  0  0  0  0
   -1.0218    0.4024    0.1692 C   0  0  0  0  0  0  0  0  0  0  0  0
    0.2107   -0.3581   -0.2190 C   0  0  0  0  0  0  0  0  0  0  0  0
    1.3095   -0.1027    0.4119 N   0  0  0  0  0  0  0  0  0  0  0  0
    2.5542   -0.8032    0.1032 C   0  0  0  0  0  0  0  0  0  0  0  0
    3.6930   -0.3135    1.0324 C   0  0  0  0  0  0  0  0  0  0  0  0
    3.9573    1.1987    0.9319 C   0  0  0  0  0  0  0  0  0  0  0  0
    4.3422    1.6719   -0.4601 C   0  0  0  0  0  0  0  0  0  0  0  0
    3.4480   -0.5840    2.4255 O   0  0  0  0  0  0  0  0  0  0  0  0
    3.3866   -1.9645    2.7471 C   0  0  0  0  0  0  0  0  0  0  0  0
   -0.0285   -1.2814   -1.2694 N   0  0  0  0  0  0  0  0  0  0  0  0
    0.9245   -2.0886   -1.8158 N   0  0  0  0  0  0  0  0  0  0  0  0
    0.2740   -2.7702   -2.7621 C   0  0  0  0  0  0  0  0  0  0  0  0
   -1.0877   -2.4303   -2.8514 C   0  0  0  0  0  0  0  0  0  0  0  0
   -1.2588   -1.4761   -1.8844 C   0  0  0  0  0  0  0  0  0  0  0  0
   -3.2358   -0.8161   -1.9094 H   0  0  0  0  0  0  0  0  0  0  0  0
   -2.5981    2.8737   -0.5683 H   0  0  0  0  0  0  0  0  0  0  0  0
   -4.6360    4.1004    0.0930 H   0  0  0  0  0  0  0  0  0  0  0  0
   -6.6056    2.8721    0.9683 H   0  0  0  0  0  0  0  0  0  0  0  0
   -6.5302    0.4020    1.1881 H   0  0  0  0  0  0  0  0  0  0  0  0
   -4.4948   -0.8418    0.5427 H   0  0  0  0  0  0  0  0  0  0  0  0
   -0.9051    1.1190    0.9740 H   0  0  0  0  0  0  0  0  0  0  0  0
    2.4217   -1.8801    0.2457 H   0  0  0  0  0  0  0  0  0  0  0  0
    2.8489   -0.6231   -0.9360 H   0  0  0  0  0  0  0  0  0  0  0  0
    4.6162   -0.8364    0.7495 H   0  0  0  0  0  0  0  0  0  0  0  0
    4.7658    1.4573    1.6282 H   0  0  0  0  0  0  0  0  0  0  0  0
    3.0840    1.7608    1.2852 H   0  0  0  0  0  0  0  0  0  0  0  0
    4.6299    2.7279   -0.4308 H   0  0  0  0  0  0  0  0  0  0  0  0
    5.1908    1.1008   -0.8492 H   0  0  0  0  0  0  0  0  0  0  0  0
    3.5079    1.5784   -1.1614 H   0  0  0  0  0  0  0  0  0  0  0  0
    4.2426   -2.5050    2.3322 H   0  0  0  0  0  0  0  0  0  0  0  0
    3.4120   -2.0607    3.8362 H   0  0  0  0  0  0  0  0  0  0  0  0
    2.4495   -2.4034    2.3949 H   0  0  0  0  0  0  0  0  0  0  0  0
    0.8231   -3.4925   -3.3534 H   0  0  0  0  0  0  0  0  0  0  0  0
   -1.8314   -2.8280   -3.5257 H   0  0  0  0  0  0  0  0  0  0  0  0
  1  2  1  0
  2  3  1  0
  3  4  2  0
  4  5  1  0
  5  6  2  0
  6  7  1  0
  7  8  2  0
  2  9  2  0
  9 10  1  0
 10 11  2  3
 11 12  1  0
 12 13  1  0
 13 14  1  0
 14 15  1  0
 13 16  1  0
 16 17  1  0
 10 18  1  0
 18 19  1  0
 19 20  2  0
 20 21  1  0
 21 22  2  0
 22  1  1  0
  8  3  1  0
 22 18  1  0
  1 23  1  0
  4 24  1  0
  5 25  1  0
  6 26  1  0
  7 27  1  0
  8 28  1  0
  9 29  1  0
 12 30  1  0
 12 31  1  0
 13 32  1  0
 14 33  1  0
 14 34  1  0
 15 35  1  0
 15 36  1  0
 15 37  1  0
 17 38  1  0
 17 39  1  0
 17 40  1  0
 20 41  1  0
 21 42  1  0
M  END
>  <ScrubInfo>  (2) 
{"isomerGroup": 0, "isomerId": 1, "confId": 0, "nr_conformers:": 1, "nr_isomers:": 3}

$$$$
_i2
     RDKit          3D

 42 44  0  0  0  0  0  0  0  0999 V2000
    1.0351   -0.8514   -3.2457 N   0  0  0  0  0  0  0  0  0  0  0  0
    0.4034   -1.4755   -4.3131 C   0  0  0  0  0  0  0  0  0  0  0  0
   -0.9239   -1.6318   -4.1455 C   0  0  0  0  0  0  0  0  0  0  0  0
   -1.1182   -1.1020   -2.7692 C   0  0  0  0  0  0  0  0  0  0  0  0
   -2.2443   -1.0473   -2.1312 N   0  0  0  0  0  0  0  0  0  0  0  0
   -2.1634   -0.5192   -0.8436 C   0  0  0  0  0  0  0  0  0  0  0  0
   -3.4419   -0.4105   -0.0980 C   0  0  0  0  0  0  0  0  0  0  0  0
   -3.5702   -0.8714    1.2220 C   0  0  0  0  0  0  0  0  0  0  0  0
   -4.7868   -0.7599    1.9006 C   0  0  0  0  0  0  0  0  0  0  0  0
   -5.8911   -0.1945    1.2661 C   0  0  0  0  0  0  0  0  0  0  0  0
   -5.7833    0.2531   -0.0488 C   0  0  0  0  0  0  0  0  0  0  0  0
   -4.5675    0.1414   -0.7276 C   0  0  0  0  0  0  0  0  0  0  0  0
   -1.0363   -0.0742   -0.2382 C   0  0  0  0  0  0  0  0  0  0  0  0
    0.2592   -0.1718   -0.9969 C   0  0  0  0  0  0  0  0  0  0  0  0
    1.4253    0.1692   -0.5463 N   0  0  0  0  0  0  0  0  0  0  0  0
    1.5486    0.7156    0.8107 C   0  0  0  0  0  0  0  0  0  0  0  0
    3.0391    0.9714    1.1319 C   0  0  0  0  0  0  0  0  0  0  0  0
    3.1582    2.0581    2.2135 C   0  0  0  0  0  0  0  0  0  0  0  0
    4.6072    2.4090    2.5286 C   0  0  0  0  0  0  0  0  0  0  0  0
    3.6801   -0.2061    1.6515 O   0  0  0  0  0  0  0  0  0  0  0  0
    3.8780   -1.2212    0.6775 C   0  0  0  0  0  0  0  0  0  0  0  0
    0.0951   -0.6893   -2.2603 N   0  0  0  0  0  0  0  0  0  0  0  0
    1.9144   -1.2697   -2.9444 H   0  0  0  0  0  0  0  0  0  0  0  0
    0.9984   -1.7842   -5.1619 H   0  0  0  0  0  0  0  0  0  0  0  0
   -1.6746   -2.0675   -4.7743 H   0  0  0  0  0  0  0  0  0  0  0  0
   -2.7286   -1.3366    1.7296 H   0  0  0  0  0  0  0  0  0  0  0  0
   -4.8740   -1.1220    2.9218 H   0  0  0  0  0  0  0  0  0  0  0  0
   -6.8382   -0.1112    1.7927 H   0  0  0  0  0  0  0  0  0  0  0  0
   -6.6453    0.6847   -0.5505 H   0  0  0  0  0  0  0  0  0  0  0  0
   -4.4987    0.4866   -1.7574 H   0  0  0  0  0  0  0  0  0  0  0  0
   -1.0349    0.3532    0.7532 H   0  0  0  0  0  0  0  0  0  0  0  0
    1.1369    0.0140    1.5458 H   0  0  0  0  0  0  0  0  0  0  0  0
    0.9962    1.6614    0.8553 H   0  0  0  0  0  0  0  0  0  0  0  0
    3.5749    1.3103    0.2355 H   0  0  0  0  0  0  0  0  0  0  0  0
    2.6404    2.9679    1.8882 H   0  0  0  0  0  0  0  0  0  0  0  0
    2.6787    1.7156    3.1387 H   0  0  0  0  0  0  0  0  0  0  0  0
    4.6468    3.2096    3.2741 H   0  0  0  0  0  0  0  0  0  0  0  0
    5.1297    2.7551    1.6312 H   0  0  0  0  0  0  0  0  0  0  0  0
    5.1490    1.5482    2.9327 H   0  0  0  0  0  0  0  0  0  0  0  0
    2.9349   -1.7209    0.4429 H   0  0  0  0  0  0  0  0  0  0  0  0
    4.3378   -0.8173   -0.2294 H   0  0  0  0  0  0  0  0  0  0  0  0
    4.5538   -1.9689    1.1021 H   0  0  0  0  0  0  0  0  0  0  0  0
  1  2  1  0
  2  3  2  0
  3  4  1  0
  4  5  2  0
  5  6  1  0
  6  7  1  0
  7  8  2  0
  8  9  1  0
  9 10  2  0
 10 11  1  0
 11 12  2  0
  6 13  2  0
 13 14  1  0
 14 15  2  3
 15 16  1  0
 16 17  1  0
 17 18  1  0
 18 19  1  0
 17 20  1  0
 20 21  1  0
 14 22  1  0
 22  1  1  0
 22  4  1  0
 12  7  1  0
  1 23  1  0
  2 24  1  0
  3 25  1  0
  8 26  1  0
  9 27  1  0
 10 28  1  0
 11 29  1  0
 12 30  1  0
 13 31  1  0
 16 32  1  0
 16 33  1  0
 17 34  1  0
 18 35  1  0
 18 36  1  0
 19 37  1  0
 19 38  1  0
 19 39  1  0
 21 40  1  0
 21 41  1  0
 21 42  1  0
M  END
>  <ScrubInfo>  (3) 
{"isomerGroup": 0, "isomerId": 2, "confId": 0, "nr_conformers:": 1, "nr_isomers:": 3}

$$$$
