_i0
     RDKit          3D

 48 50  0  0  0  0  0  0  0  0999 V2000
   -4.5944    2.7940    1.9728 C   0  0  0  0  0  0  0  0  0  0  0  0
   -5.2827    1.9646    1.0475 O   0  0  0  0  0  0  0  0  0  0  0  0
   -4.5906    1.7964   -0.1927 C   0  0  0  0  0  0  0  0  0  0  0  0
   -3.2439    1.0606   -0.0854 C   0  0  0  0  0  0  0  0  0  0  0  0
   -3.3949   -0.2011    0.6224 N   0  0  0  0  0  0  0  0  0  0  0  0
   -2.3516   -1.0999    0.4720 C   0  0  0  0  0  0  0  0  0  0  0  0
   -1.1012   -0.6347    0.2868 N   0  0  0  0  0  0  0  0  0  0  0  0
   -0.0524   -1.4859    0.1365 C   0  0  0  0  0  0  0  0  0  0  0  0
    1.2524   -1.0288   -0.0687 N   0  0  0  0  0  0  0  0  0  0  0  0
    1.8348    0.2546   -0.1173 C   0  0  0  0  0  0  0  0  0  0  0  0
    1.1388    1.4310    0.1625 C   0  0  0  0  0  0  0  0  0  0  0  0
    1.7750    2.6728    0.0854 C   0  0  0  0  0  0  0  0  0  0  0  0
    3.1192    2.7660   -0.2727 C   0  0  0  0  0  0  0  0  0  0  0  0
    3.6094    4.0428   -0.3085 O   0  0  0  0  0  0  0  0  0  0  0  0
    4.9782    4.2034   -0.6571 C   0  0  0  0  0  0  0  0  0  0  0  0
    3.8344    1.6013   -0.5545 C   0  0  0  0  0  0  0  0  0  0  0  0
    3.2016    0.3523   -0.4782 C   0  0  0  0  0  0  0  0  0  0  0  0
    3.8146   -0.8575   -0.7331 O   0  0  0  0  0  0  0  0  0  0  0  0
    5.1854   -0.8253   -1.1103 C   0  0  0  0  0  0  0  0  0  0  0  0
   -0.3431   -2.8551    0.1783 C   0  0  0  0  0  0  0  0  0  0  0  0
    0.3459   -4.0821    0.0780 C   0  0  0  0  0  0  0  0  0  0  0  0
   -0.4596   -5.1441    0.1937 N   0  0  0  0  0  0  0  0  0  0  0  0
   -1.6793   -4.5859    0.3787 N   0  0  0  0  0  0  0  0  0  0  0  0
   -2.8289   -5.4364    0.5578 C   0  0  0  0  0  0  0  0  0  0  0  0
   -1.6612   -3.2179    0.3705 C   0  0  0  0  0  0  0  0  0  0  0  0
   -2.7048   -2.3898    0.5183 N   0  0  0  0  0  0  0  0  0  0  0  0
   -3.7000    2.2937    2.3537 H   0  0  0  0  0  0  0  0  0  0  0  0
   -4.3289    3.7515    1.5147 H   0  0  0  0  0  0  0  0  0  0  0  0
   -5.2605    2.9866    2.8184 H   0  0  0  0  0  0  0  0  0  0  0  0
   -5.2596    1.2194   -0.8413 H   0  0  0  0  0  0  0  0  0  0  0  0
   -4.4518    2.7752   -0.6665 H   0  0  0  0  0  0  0  0  0  0  0  0
   -2.8669    0.9011   -1.1038 H   0  0  0  0  0  0  0  0  0  0  0  0
   -2.5219    1.6907    0.4462 H   0  0  0  0  0  0  0  0  0  0  0  0
   -4.2659   -0.6976    0.4758 H   0  0  0  0  0  0  0  0  0  0  0  0
    1.9427   -1.7503   -0.2461 H   0  0  0  0  0  0  0  0  0  0  0  0
    0.0956    1.4072    0.4573 H   0  0  0  0  0  0  0  0  0  0  0  0
    1.2127    3.5756    0.3116 H   0  0  0  0  0  0  0  0  0  0  0  0
    5.2057    5.2735   -0.6346 H   0  0  0  0  0  0  0  0  0  0  0  0
    5.1715    3.8432   -1.6729 H   0  0  0  0  0  0  0  0  0  0  0  0
    5.6313    3.7088    0.0696 H   0  0  0  0  0  0  0  0  0  0  0  0
    4.8776    1.6653   -0.8312 H   0  0  0  0  0  0  0  0  0  0  0  0
    5.3243   -0.2772   -2.0480 H   0  0  0  0  0  0  0  0  0  0  0  0
    5.8053   -0.4087   -0.3097 H   0  0  0  0  0  0  0  0  0  0  0  0
    5.5092   -1.8570   -1.2780 H   0  0  0  0  0  0  0  0  0  0  0  0
    1.4041   -4.2486   -0.0750 H   0  0  0  0  0  0  0  0  0  0  0  0
   -3.7248   -4.8299    0.7074 H   0  0  0  0  0  0  0  0  0  0  0  0
   -2.6576   -6.0658    1.4348 H   0  0  0  0  0  0  0  0  0  0  0  0
   -2.9433   -6.0521   -0.3380 H   0  0  0  0  0  0  0  0  0  0  0  0
  1  2  1  0
  2  3  1  0
  3  4  1  0
  4  5  1  0
  5  6  1  0
  6  7  2  0
  7  8  1  0
  8  9  1  0
  9 10  1  0
 10 11  2  0
 11 12  1  0
 12 13  2  0
 13 14  1  0
 14 15  1  0
 13 16  1  0
 16 17  2  0
 17 18  1  0
 18 19  1  0
  8 20  2  0
 20 21  1  0
 21 22  2  0
 22 23  1  0
 23 24  1  0
 23 25  1  0
 25 26  2  0
 26  6  1  0
 17 10  1  0
 25 20  1  0
  1 27  1  0
  1 28  1  0
  1 29  1  0
  3 30  1  0
  3 31  1  0
  4 32  1  0
  4 33  1  0
  5 34  1  0
  9 35  1  0
 11 36  1  0
 12 37  1  0
 15 38  1  0
 15 39  1  0
 15 40  1  0
 16 41  1  0
 19 42  1  0
 19 43  1  0
 19 44  1  0
 21 45  1  0
 24 46  1  0
 24 47  1  0
 24 48  1  0
M  END
>  <ScrubInfo>  (1) 
{"isomerGroup": 0, "isomerId": 0, "confId": 0, "nr_conformers:": 1, "nr_isomers:": 9}

$$$$
_i1
     RDKit          3D

 48 50  0  0  0  0  0  0  0  0999 V2000
   -0.6991   -0.3398   -0.3303 N   0  0  0  0  0  0  0  0  0  0  0  0
    0.0845   -1.3297    0.2289 C   0  0  0  0  0  0  0  0  0  0  0  0
    1.4615   -1.2840    0.2646 N   0  0  0  0  0  0  0  0  0  0  0  0
    2.3554   -0.1977    0.1511 C   0  0  0  0  0  0  0  0  0  0  0  0
    1.9796    1.1293    0.3883 C   0  0  0  0  0  0  0  0  0  0  0  0
    2.8917    2.1778    0.2234 C   0  0  0  0  0  0  0  0  0  0  0  0
    4.1973    1.9129   -0.1819 C   0  0  0  0  0  0  0  0  0  0  0  0
    5.1815    2.8428   -0.3789 O   0  0  0  0  0  0  0  0  0  0  0  0
    4.8306    4.2058   -0.1717 C   0  0  0  0  0  0  0  0  0  0  0  0
    4.5907    0.5914   -0.4130 C   0  0  0  0  0  0  0  0  0  0  0  0
    3.6849   -0.4615   -0.2500 C   0  0  0  0  0  0  0  0  0  0  0  0
    3.9806   -1.7933   -0.4423 O   0  0  0  0  0  0  0  0  0  0  0  0
    5.2836   -2.0992   -0.9254 C   0  0  0  0  0  0  0  0  0  0  0  0
   -0.6012   -2.3741    0.7098 C   0  0  0  0  0  0  0  0  0  0  0  0
   -0.3133   -3.6316    1.4071 C   0  0  0  0  0  0  0  0  0  0  0  0
   -1.3921   -4.3040    1.7205 N   0  0  0  0  0  0  0  0  0  0  0  0
   -2.4627   -3.5531    1.2063 N   0  0  0  0  0  0  0  0  0  0  0  0
   -3.8013   -3.8493    1.6552 C   0  0  0  0  0  0  0  0  0  0  0  0
   -2.0784   -2.3552    0.6245 C   0  0  0  0  0  0  0  0  0  0  0  0
   -2.7911   -1.4073    0.1168 N   0  0  0  0  0  0  0  0  0  0  0  0
   -2.0662   -0.3606   -0.4107 C   0  0  0  0  0  0  0  0  0  0  0  0
   -2.6626    0.6183   -1.0052 N   0  0  0  0  0  0  0  0  0  0  0  0
   -4.1281    0.5990   -1.0771 C   0  0  0  0  0  0  0  0  0  0  0  0
   -4.7638    1.1417    0.2112 C   0  0  0  0  0  0  0  0  0  0  0  0
   -4.3625    2.4712    0.5624 O   0  0  0  0  0  0  0  0  0  0  0  0
   -4.7694    3.4554   -0.3753 C   0  0  0  0  0  0  0  0  0  0  0  0
   -0.2341    0.3918   -0.8454 H   0  0  0  0  0  0  0  0  0  0  0  0
    1.9550   -2.1712    0.3373 H   0  0  0  0  0  0  0  0  0  0  0  0
    0.9825    1.3709    0.7469 H   0  0  0  0  0  0  0  0  0  0  0  0
    2.5477    3.1862    0.4300 H   0  0  0  0  0  0  0  0  0  0  0  0
    5.7160    4.8140   -0.3804 H   0  0  0  0  0  0  0  0  0  0  0  0
    4.0406    4.5197   -0.8618 H   0  0  0  0  0  0  0  0  0  0  0  0
    4.5418    4.3845    0.8693 H   0  0  0  0  0  0  0  0  0  0  0  0
    5.6174    0.4187   -0.7181 H   0  0  0  0  0  0  0  0  0  0  0  0
    5.4653   -1.6317   -1.8989 H   0  0  0  0  0  0  0  0  0  0  0  0
    5.3421   -3.1834   -1.0617 H   0  0  0  0  0  0  0  0  0  0  0  0
    6.0500   -1.8143   -0.1973 H   0  0  0  0  0  0  0  0  0  0  0  0
    0.7166   -3.9268    1.6449 H   0  0  0  0  0  0  0  0  0  0  0  0
   -4.5419   -3.5182    0.9201 H   0  0  0  0  0  0  0  0  0  0  0  0
   -4.0045   -3.3459    2.6055 H   0  0  0  0  0  0  0  0  0  0  0  0
   -3.9328   -4.9267    1.7987 H   0  0  0  0  0  0  0  0  0  0  0  0
   -4.5167   -0.4018   -1.3009 H   0  0  0  0  0  0  0  0  0  0  0  0
   -4.4194    1.2218   -1.9294 H   0  0  0  0  0  0  0  0  0  0  0  0
   -4.4938    0.5040    1.0591 H   0  0  0  0  0  0  0  0  0  0  0  0
   -5.8567    1.1123    0.1288 H   0  0  0  0  0  0  0  0  0  0  0  0
   -4.5812    4.4401    0.0616 H   0  0  0  0  0  0  0  0  0  0  0  0
   -5.8385    3.3716   -0.5929 H   0  0  0  0  0  0  0  0  0  0  0  0
   -4.1855    3.3791   -1.2963 H   0  0  0  0  0  0  0  0  0  0  0  0
  1  2  1  0
  2  3  1  0
  3  4  1  0
  4  5  2  0
  5  6  1  0
  6  7  2  0
  7  8  1  0
  8  9  1  0
  7 10  1  0
 10 11  2  0
 11 12  1  0
 12 13  1  0
  2 14  2  0
 14 15  1  0
 15 16  2  0
 16 17  1  0
 17 18  1  0
 17 19  1  0
 19 20  2  0
 20 21  1  0
 21 22  2  3
 22 23  1  0
 23 24  1  0
 24 25  1  0
 25 26  1  0
 21  1  1  0
 11  4  1  0
 19 14  1  0
  1 27  1  0
  3 28  1  0
  5 29  1  0
  6 30  1  0
  9 31  1  0
  9 32  1  0
  9 33  1  0
 10 34  1  0
 13 35  1  0
 13 36  1  0
 13 37  1  0
 15 38  1  0
 18 39  1  0
 18 40  1  0
 18 41  1  0
 23 42  1  0
 23 43  1  0
 24 44  1  0
 24 45  1  0
 26 46  1  0
 26 47  1  0
 26 48  1  0
M  END
>  <ScrubInfo>  (2) 
{"isomerGroup": 0, "isomerId": 1, "confId": 0, "nr_conformers:": 1, "nr_isomers:": 9}

$$$$
_i2
     RDKit          3D

 48 50  0  0  0  0  0  0  0  0999 V2000
    0.2799   -0.5203   -0.0485 N   0  0  0  0  0  0  0  0  0  0  0  0
    1.5621   -0.9374    0.2404 C   0  0  0  0  0  0  0  0  0  0  0  0
    2.1333   -0.2018    1.2461 N   0  0  0  0  0  0  0  0  0  0  0  0
    3.5531   -0.3488    1.5642 C   0  0  0  0  0  0  0  0  0  0  0  0
    4.4006    0.5176    0.6241 C   0  0  0  0  0  0  0  0  0  0  0  0
    4.0285    1.9011    0.7231 O   0  0  0  0  0  0  0  0  0  0  0  0
    4.6891    2.5780    1.7848 C   0  0  0  0  0  0  0  0  0  0  0  0
    2.1684   -1.9263   -0.3679 N   0  0  0  0  0  0  0  0  0  0  0  0
    1.3738   -2.4912   -1.3194 C   0  0  0  0  0  0  0  0  0  0  0  0
    0.0813   -2.1482   -1.6624 C   0  0  0  0  0  0  0  0  0  0  0  0
   -0.2787   -3.0356   -2.6856 C   0  0  0  0  0  0  0  0  0  0  0  0
    0.7084   -3.8906   -2.9863 N   0  0  0  0  0  0  0  0  0  0  0  0
    1.7050   -3.5362   -2.1361 N   0  0  0  0  0  0  0  0  0  0  0  0
    2.9511   -4.2587   -2.1695 C   0  0  0  0  0  0  0  0  0  0  0  0
   -0.5817   -1.0688   -0.9745 C   0  0  0  0  0  0  0  0  0  0  0  0
   -1.8015   -0.7986   -1.2990 N   0  0  0  0  0  0  0  0  0  0  0  0
   -2.4683    0.2686   -0.6731 C   0  0  0  0  0  0  0  0  0  0  0  0
   -2.9533    1.2969   -1.4856 C   0  0  0  0  0  0  0  0  0  0  0  0
   -3.6245    2.3984   -0.9391 C   0  0  0  0  0  0  0  0  0  0  0  0
   -3.8226    2.4850    0.4386 C   0  0  0  0  0  0  0  0  0  0  0  0
   -4.4466    3.5068    1.0989 O   0  0  0  0  0  0  0  0  0  0  0  0
   -4.9609    4.5682    0.3039 C   0  0  0  0  0  0  0  0  0  0  0  0
   -3.3565    1.4574    1.2602 C   0  0  0  0  0  0  0  0  0  0  0  0
   -2.7116    0.3485    0.7074 C   0  0  0  0  0  0  0  0  0  0  0  0
   -2.2443   -0.6008    1.5831 O   0  0  0  0  0  0  0  0  0  0  0  0
   -3.0702   -1.7671    1.5337 C   0  0  0  0  0  0  0  0  0  0  0  0
   -0.1544    0.0767    0.6377 H   0  0  0  0  0  0  0  0  0  0  0  0
    1.8873    0.7849    1.2098 H   0  0  0  0  0  0  0  0  0  0  0  0
    3.8674   -1.3969    1.5125 H   0  0  0  0  0  0  0  0  0  0  0  0
    3.6921   -0.0238    2.6000 H   0  0  0  0  0  0  0  0  0  0  0  0
    5.4695    0.3913    0.8304 H   0  0  0  0  0  0  0  0  0  0  0  0
    4.2288    0.2183   -0.4154 H   0  0  0  0  0  0  0  0  0  0  0  0
    5.7730    2.5558    1.6367 H   0  0  0  0  0  0  0  0  0  0  0  0
    4.3605    3.6208    1.7817 H   0  0  0  0  0  0  0  0  0  0  0  0
    4.4312    2.1377    2.7516 H   0  0  0  0  0  0  0  0  0  0  0  0
   -1.2156   -3.0968   -3.2236 H   0  0  0  0  0  0  0  0  0  0  0  0
    2.7494   -5.3027   -1.9171 H   0  0  0  0  0  0  0  0  0  0  0  0
    3.6527   -3.8323   -1.4493 H   0  0  0  0  0  0  0  0  0  0  0  0
    3.3660   -4.1829   -3.1779 H   0  0  0  0  0  0  0  0  0  0  0  0
   -2.8002    1.2409   -2.5611 H   0  0  0  0  0  0  0  0  0  0  0  0
   -3.9733    3.1683   -1.6194 H   0  0  0  0  0  0  0  0  0  0  0  0
   -5.4323    5.2913    0.9764 H   0  0  0  0  0  0  0  0  0  0  0  0
   -5.7288    4.2070   -0.3882 H   0  0  0  0  0  0  0  0  0  0  0  0
   -4.1573    5.0853   -0.2309 H   0  0  0  0  0  0  0  0  0  0  0  0
   -3.5032    1.5167    2.3353 H   0  0  0  0  0  0  0  0  0  0  0  0
   -4.1281   -1.5147    1.6699 H   0  0  0  0  0  0  0  0  0  0  0  0
   -2.9277   -2.3206    0.6008 H   0  0  0  0  0  0  0  0  0  0  0  0
   -2.7710   -2.4201    2.3590 H   0  0  0  0  0  0  0  0  0  0  0  0
  1  2  1  0
  2  3  1  0
  3  4  1  0
  4  5  1  0
  5  6  1  0
  6  7  1  0
  2  8  2  0
  8  9  1  0
  9 10  2  0
 10 11  1  0
 11 12  2  0
 12 13  1  0
 13 14  1  0
 10 15  1  0
 15 16  2  3
 16 17  1  0
 17 18  2  0
 18 19  1  0
 19 20  2  0
 20 21  1  0
 21 22  1  0
 20 23  1  0
 23 24  2  0
 24 25  1  0
 25 26  1  0
 15  1  1  0
 24 17  1  0
 13  9  1  0
  1 27  1  0
  3 28  1  0
  4 29  1  0
  4 30  1  0
  5 31  1  0
  5 32  1  0
  7 33  1  0
  7 34  1  0
  7 35  1  0
 11 36  1  0
 14 37  1  0
 14 38  1  0
 14 39  1  0
 18 40  1  0
 19 41  1  0
 22 42  1  0
 22 43  1  0
 22 44  1  0
 23 45  1  0
 26 46  1  0
 26 47  1  0
 26 48  1  0
M  END
>  <ScrubInfo>  (3) 
{"isomerGroup": 0, "isomerId": 2, "confId": 0, "nr_conformers:": 1, "nr_isomers:": 9}

$$$$
_i3
     RDKit          3D

 48 50  0  0  0  0  0  0  0  0999 V2000
    2.3414   -0.1770    0.0991 N   0  0  0  0  0  0  0  0  0  0  0  0
    2.1509    0.8449   -0.8183 C   0  0  0  0  0  0  0  0  0  0  0  0
    3.0088    1.2735   -1.6738 N   0  0  0  0  0  0  0  0  0  0  0  0
    4.3371    0.6845   -1.7729 C   0  0  0  0  0  0  0  0  0  0  0  0
    5.3161    1.4129   -0.8496 C   0  0  0  0  0  0  0  0  0  0  0  0
    6.6067    0.7988   -0.8730 O   0  0  0  0  0  0  0  0  0  0  0  0
    6.7352   -0.2634    0.0602 C   0  0  0  0  0  0  0  0  0  0  0  0
    0.9512    1.5373   -0.8804 N   0  0  0  0  0  0  0  0  0  0  0  0
   -0.0330    1.2067   -0.0908 C   0  0  0  0  0  0  0  0  0  0  0  0
   -1.2352    1.8726   -0.1018 N   0  0  0  0  0  0  0  0  0  0  0  0
   -2.5012    1.2261   -0.1955 C   0  0  0  0  0  0  0  0  0  0  0  0
   -3.5791    1.8446    0.4563 C   0  0  0  0  0  0  0  0  0  0  0  0
   -4.8700    1.3172    0.3758 C   0  0  0  0  0  0  0  0  0  0  0  0
   -5.1060    0.1764   -0.3857 C   0  0  0  0  0  0  0  0  0  0  0  0
   -6.3150   -0.4428   -0.5508 O   0  0  0  0  0  0  0  0  0  0  0  0
   -7.4224    0.1062    0.1531 C   0  0  0  0  0  0  0  0  0  0  0  0
   -4.0467   -0.4218   -1.0778 C   0  0  0  0  0  0  0  0  0  0  0  0
   -2.7490    0.0989   -1.0056 C   0  0  0  0  0  0  0  0  0  0  0  0
   -1.6785   -0.4020   -1.6993 O   0  0  0  0  0  0  0  0  0  0  0  0
   -1.8716   -1.5945   -2.4472 C   0  0  0  0  0  0  0  0  0  0  0  0
    0.1339    0.1625    0.8942 C   0  0  0  0  0  0  0  0  0  0  0  0
   -0.6133   -0.4322    1.9220 C   0  0  0  0  0  0  0  0  0  0  0  0
    0.0691   -1.3994    2.5568 N   0  0  0  0  0  0  0  0  0  0  0  0
    1.2665   -1.4186    1.9228 N   0  0  0  0  0  0  0  0  0  0  0  0
    2.2689   -2.3591    2.3534 C   0  0  0  0  0  0  0  0  0  0  0  0
    1.3354   -0.4891    0.9344 C   0  0  0  0  0  0  0  0  0  0  0  0
    3.2330   -0.6444    0.1034 H   0  0  0  0  0  0  0  0  0  0  0  0
    4.3354   -0.3963   -1.5965 H   0  0  0  0  0  0  0  0  0  0  0  0
    4.6872    0.7877   -2.8073 H   0  0  0  0  0  0  0  0  0  0  0  0
    5.4408    2.4431   -1.2019 H   0  0  0  0  0  0  0  0  0  0  0  0
    4.9389    1.4735    0.1784 H   0  0  0  0  0  0  0  0  0  0  0  0
    7.7407   -0.6826   -0.0329 H   0  0  0  0  0  0  0  0  0  0  0  0
    6.6083    0.1086    1.0815 H   0  0  0  0  0  0  0  0  0  0  0  0
    6.0092   -1.0554   -0.1429 H   0  0  0  0  0  0  0  0  0  0  0  0
   -1.1909    2.5559   -0.8564 H   0  0  0  0  0  0  0  0  0  0  0  0
   -3.4079    2.7399    1.0508 H   0  0  0  0  0  0  0  0  0  0  0  0
   -5.6635    1.8239    0.9146 H   0  0  0  0  0  0  0  0  0  0  0  0
   -7.2579    0.0748    1.2353 H   0  0  0  0  0  0  0  0  0  0  0  0
   -8.2984   -0.5109   -0.0686 H   0  0  0  0  0  0  0  0  0  0  0  0
   -7.6383    1.1249   -0.1854 H   0  0  0  0  0  0  0  0  0  0  0  0
   -4.2743   -1.2946   -1.6814 H   0  0  0  0  0  0  0  0  0  0  0  0
   -2.1931   -2.4190   -1.8023 H   0  0  0  0  0  0  0  0  0  0  0  0
   -2.5772   -1.4338   -3.2687 H   0  0  0  0  0  0  0  0  0  0  0  0
   -0.9085   -1.8725   -2.8860 H   0  0  0  0  0  0  0  0  0  0  0  0
   -1.6223   -0.2103    2.2436 H   0  0  0  0  0  0  0  0  0  0  0  0
    1.8555   -3.3673    2.2684 H   0  0  0  0  0  0  0  0  0  0  0  0
    2.5253   -2.1371    3.3924 H   0  0  0  0  0  0  0  0  0  0  0  0
    3.1578   -2.2710    1.7254 H   0  0  0  0  0  0  0  0  0  0  0  0
  1  2  1  0
  2  3  2  3
  3  4  1  0
  4  5  1  0
  5  6  1  0
  6  7  1  0
  2  8  1  0
  8  9  2  0
  9 10  1  0
 10 11  1  0
 11 12  2  0
 12 13  1  0
 13 14  2  0
 14 15  1  0
 15 16  1  0
 14 17  1  0
 17 18  2  0
 18 19  1  0
 19 20  1  0
  9 21  1  0
 21 22  1  0
 22 23  2  0
 23 24  1  0
 24 25  1  0
 24 26  1  0
 26  1  1  0
 18 11  1  0
 26 21  2  0
  1 27  1  0
  4 28  1  0
  4 29  1  0
  5 30  1  0
  5 31  1  0
  7 32  1  0
  7 33  1  0
  7 34  1  0
 10 35  1  0
 12 36  1  0
 13 37  1  0
 16 38  1  0
 16 39  1  0
 16 40  1  0
 17 41  1  0
 20 42  1  0
 20 43  1  0
 20 44  1  0
 22 45  1  0
 25 46  1  0
 25 47  1  0
 25 48  1  0
M  END
>  <ScrubInfo>  (4) 
{"isomerGroup": 0, "isomerId": 3, "confId": 0, "nr_conformers:": 1, "nr_isomers:": 9}

$$$$
_i4
     RDKit          3D

 48 50  0  0  0  0  0  0  0  0999 V2000
   -1.5369   -4.5907   -0.6071 N   0  0  0  0  0  0  0  0  0  0  0  0
   -0.2770   -4.0084   -0.5064 C   0  0  0  0  0  0  0  0  0  0  0  0
   -0.3304   -2.6983   -0.2340 C   0  0  0  0  0  0  0  0  0  0  0  0
    0.6016   -1.6087   -0.0603 C   0  0  0  0  0  0  0  0  0  0  0  0
    1.8849   -1.7895   -0.0918 N   0  0  0  0  0  0  0  0  0  0  0  0
    2.7161   -0.6608    0.0363 C   0  0  0  0  0  0  0  0  0  0  0  0
    3.2772   -0.3819    1.2871 C   0  0  0  0  0  0  0  0  0  0  0  0
    4.1261    0.7133    1.4646 C   0  0  0  0  0  0  0  0  0  0  0  0
    4.4308    1.5369    0.3829 C   0  0  0  0  0  0  0  0  0  0  0  0
    5.2433    2.6384    0.4174 O   0  0  0  0  0  0  0  0  0  0  0  0
    5.8343    2.9618    1.6699 C   0  0  0  0  0  0  0  0  0  0  0  0
    3.8859    1.2554   -0.8763 C   0  0  0  0  0  0  0  0  0  0  0  0
    3.0348    0.1598   -1.0642 C   0  0  0  0  0  0  0  0  0  0  0  0
    2.4688   -0.1936   -2.2656 O   0  0  0  0  0  0  0  0  0  0  0  0
    2.7686    0.6168   -3.3919 C   0  0  0  0  0  0  0  0  0  0  0  0
    0.0109   -0.3888    0.1469 N   0  0  0  0  0  0  0  0  0  0  0  0
   -1.2811   -0.2388    0.2040 C   0  0  0  0  0  0  0  0  0  0  0  0
   -1.7190    1.0389    0.4011 N   0  0  0  0  0  0  0  0  0  0  0  0
   -3.0401    1.4995    0.0225 C   0  0  0  0  0  0  0  0  0  0  0  0
   -4.1078    1.0993    1.0475 C   0  0  0  0  0  0  0  0  0  0  0  0
   -5.3499    1.7676    0.7935 O   0  0  0  0  0  0  0  0  0  0  0  0
   -5.4333    3.0336    1.4350 C   0  0  0  0  0  0  0  0  0  0  0  0
   -2.2085   -1.2408    0.0854 N   0  0  0  0  0  0  0  0  0  0  0  0
   -1.7678   -2.4349   -0.1076 C   0  0  0  0  0  0  0  0  0  0  0  0
   -2.4781   -3.6295   -0.2421 N   0  0  0  0  0  0  0  0  0  0  0  0
   -3.7855   -3.6504   -0.8690 C   0  0  0  0  0  0  0  0  0  0  0  0
   -1.6031   -5.4901   -0.1252 H   0  0  0  0  0  0  0  0  0  0  0  0
    0.6085   -4.6126   -0.6460 H   0  0  0  0  0  0  0  0  0  0  0  0
    3.0418   -1.0265    2.1294 H   0  0  0  0  0  0  0  0  0  0  0  0
    4.5285    0.8894    2.4558 H   0  0  0  0  0  0  0  0  0  0  0  0
    6.4501    3.8551    1.5279 H   0  0  0  0  0  0  0  0  0  0  0  0
    6.4907    2.1568    2.0165 H   0  0  0  0  0  0  0  0  0  0  0  0
    5.0701    3.1998    2.4172 H   0  0  0  0  0  0  0  0  0  0  0  0
    4.1508    1.9141   -1.6963 H   0  0  0  0  0  0  0  0  0  0  0  0
    2.4094    1.6412   -3.2489 H   0  0  0  0  0  0  0  0  0  0  0  0
    3.8398    0.5994   -3.6181 H   0  0  0  0  0  0  0  0  0  0  0  0
    2.2411    0.1984   -4.2545 H   0  0  0  0  0  0  0  0  0  0  0  0
   -0.9669    1.7026    0.2546 H   0  0  0  0  0  0  0  0  0  0  0  0
   -3.3146    1.1361   -0.9753 H   0  0  0  0  0  0  0  0  0  0  0  0
   -3.0082    2.5910   -0.0647 H   0  0  0  0  0  0  0  0  0  0  0  0
   -3.7726    1.2897    2.0746 H   0  0  0  0  0  0  0  0  0  0  0  0
   -4.3110    0.0264    0.9743 H   0  0  0  0  0  0  0  0  0  0  0  0
   -6.3976    3.4824    1.1819 H   0  0  0  0  0  0  0  0  0  0  0  0
   -4.6393    3.7024    1.0918 H   0  0  0  0  0  0  0  0  0  0  0  0
   -5.3816    2.9145    2.5215 H   0  0  0  0  0  0  0  0  0  0  0  0
   -4.2234   -4.6516   -0.8029 H   0  0  0  0  0  0  0  0  0  0  0  0
   -3.7155   -3.3701   -1.9252 H   0  0  0  0  0  0  0  0  0  0  0  0
   -4.4649   -2.9546   -0.3661 H   0  0  0  0  0  0  0  0  0  0  0  0
  1  2  1  0
  2  3  2  0
  3  4  1  0
  4  5  2  3
  5  6  1  0
  6  7  2  0
  7  8  1  0
  8  9  2  0
  9 10  1  0
 10 11  1  0
  9 12  1  0
 12 13  2  0
 13 14  1  0
 14 15  1  0
  4 16  1  0
 16 17  2  0
 17 18  1  0
 18 19  1  0
 19 20  1  0
 20 21  1  0
 21 22  1  0
 17 23  1  0
 23 24  2  0
 24 25  1  0
 25 26  1  0
 25  1  1  0
 24  3  1  0
 13  6  1  0
  1 27  1  0
  2 28  1  0
  7 29  1  0
  8 30  1  0
 11 31  1  0
 11 32  1  0
 11 33  1  0
 12 34  1  0
 15 35  1  0
 15 36  1  0
 15 37  1  0
 18 38  1  0
 19 39  1  0
 19 40  1  0
 20 41  1  0
 20 42  1  0
 22 43  1  0
 22 44  1  0
 22 45  1  0
 26 46  1  0
 26 47  1  0
 26 48  1  0
M  END
>  <ScrubInfo>  (5) 
{"isomerGroup": 0, "isomerId": 4, "confId": 0, "nr_conformers:": 1, "nr_isomers:": 9}

$$$$
_i5
     RDKit          3D

 48 50  0  0  0  0  0  0  0  0999 V2000
   -2.2629    0.9037   -0.5845 N   0  0  0  0  0  0  0  0  0  0  0  0
   -2.2348   -0.2392   -1.3398 C   0  0  0  0  0  0  0  0  0  0  0  0
   -3.3942   -0.4781   -2.0259 N   0  0  0  0  0  0  0  0  0  0  0  0
   -4.4919   -1.1742   -1.3355 C   0  0  0  0  0  0  0  0  0  0  0  0
   -5.1918   -0.3108   -0.2864 C   0  0  0  0  0  0  0  0  0  0  0  0
   -6.3703   -0.9837    0.1629 O   0  0  0  0  0  0  0  0  0  0  0  0
   -7.0540   -0.2371    1.1610 C   0  0  0  0  0  0  0  0  0  0  0  0
   -1.2235   -1.0455   -1.4649 N   0  0  0  0  0  0  0  0  0  0  0  0
   -0.0391   -0.7789   -0.7826 C   0  0  0  0  0  0  0  0  0  0  0  0
    0.9092   -1.6448   -0.9446 N   0  0  0  0  0  0  0  0  0  0  0  0
    2.1735   -1.4947   -0.3627 C   0  0  0  0  0  0  0  0  0  0  0  0
    2.4732   -2.2425    0.7784 C   0  0  0  0  0  0  0  0  0  0  0  0
    3.7337   -2.1566    1.3683 C   0  0  0  0  0  0  0  0  0  0  0  0
    4.7177   -1.3335    0.8189 C   0  0  0  0  0  0  0  0  0  0  0  0
    5.9038   -1.3381    1.5011 O   0  0  0  0  0  0  0  0  0  0  0  0
    6.9509   -0.5244    0.9884 C   0  0  0  0  0  0  0  0  0  0  0  0
    4.4356   -0.5968   -0.3356 C   0  0  0  0  0  0  0  0  0  0  0  0
    3.1717   -0.6802   -0.9385 C   0  0  0  0  0  0  0  0  0  0  0  0
    2.7982    0.0190   -2.0606 O   0  0  0  0  0  0  0  0  0  0  0  0
    3.8223    0.6652   -2.8019 C   0  0  0  0  0  0  0  0  0  0  0  0
   -0.0184    0.4258    0.0348 C   0  0  0  0  0  0  0  0  0  0  0  0
    0.8828    1.0977    0.8807 C   0  0  0  0  0  0  0  0  0  0  0  0
    0.3744    2.2302    1.3945 N   0  0  0  0  0  0  0  0  0  0  0  0
   -0.8723    2.2849    0.8751 N   0  0  0  0  0  0  0  0  0  0  0  0
   -1.7266    3.3913    1.2228 C   0  0  0  0  0  0  0  0  0  0  0  0
   -1.1395    1.2171    0.0808 C   0  0  0  0  0  0  0  0  0  0  0  0
   -3.0280    1.5417   -0.7555 H   0  0  0  0  0  0  0  0  0  0  0  0
   -3.1242   -1.1014   -2.7898 H   0  0  0  0  0  0  0  0  0  0  0  0
   -5.2269   -1.4820   -2.0892 H   0  0  0  0  0  0  0  0  0  0  0  0
   -4.1268   -2.1020   -0.8774 H   0  0  0  0  0  0  0  0  0  0  0  0
   -5.4709    0.6571   -0.7190 H   0  0  0  0  0  0  0  0  0  0  0  0
   -4.5289   -0.1367    0.5684 H   0  0  0  0  0  0  0  0  0  0  0  0
   -6.4160   -0.0978    2.0390 H   0  0  0  0  0  0  0  0  0  0  0  0
   -7.3680    0.7335    0.7651 H   0  0  0  0  0  0  0  0  0  0  0  0
   -7.9438   -0.7970    1.4609 H   0  0  0  0  0  0  0  0  0  0  0  0
    1.7188   -2.8990    1.2037 H   0  0  0  0  0  0  0  0  0  0  0  0
    3.9514   -2.7404    2.2593 H   0  0  0  0  0  0  0  0  0  0  0  0
    7.2435   -0.8446   -0.0170 H   0  0  0  0  0  0  0  0  0  0  0  0
    6.6704    0.5340    1.0014 H   0  0  0  0  0  0  0  0  0  0  0  0
    7.8198   -0.6463    1.6423 H   0  0  0  0  0  0  0  0  0  0  0  0
    5.1933    0.0466   -0.7618 H   0  0  0  0  0  0  0  0  0  0  0  0
    4.2344    1.5115   -2.2429 H   0  0  0  0  0  0  0  0  0  0  0  0
    3.3734    1.0605   -3.7182 H   0  0  0  0  0  0  0  0  0  0  0  0
    4.6096   -0.0380   -3.0936 H   0  0  0  0  0  0  0  0  0  0  0  0
    1.8926    0.8294    1.1575 H   0  0  0  0  0  0  0  0  0  0  0  0
   -1.2836    4.3060    0.8212 H   0  0  0  0  0  0  0  0  0  0  0  0
   -1.7963    3.4464    2.3122 H   0  0  0  0  0  0  0  0  0  0  0  0
   -2.7217    3.2427    0.7982 H   0  0  0  0  0  0  0  0  0  0  0  0
  1  2  1  0
  2  3  1  0
  3  4  1  0
  4  5  1  0
  5  6  1  0
  6  7  1  0
  2  8  2  0
  8  9  1  0
  9 10  2  3
 10 11  1  0
 11 12  2  0
 12 13  1  0
 13 14  2  0
 14 15  1  0
 15 16  1  0
 14 17  1  0
 17 18  2  0
 18 19  1  0
 19 20  1  0
  9 21  1  0
 21 22  1  0
 22 23  2  0
 23 24  1  0
 24 25  1  0
 24 26  1  0
 26  1  1  0
 18 11  1  0
 26 21  2  0
  1 27  1  0
  3 28  1  0
  4 29  1  0
  4 30  1  0
  5 31  1  0
  5 32  1  0
  7 33  1  0
  7 34  1  0
  7 35  1  0
 12 36  1  0
 13 37  1  0
 16 38  1  0
 16 39  1  0
 16 40  1  0
 17 41  1  0
 20 42  1  0
 20 43  1  0
 20 44  1  0
 22 45  1  0
 25 46  1  0
 25 47  1  0
 25 48  1  0
M  END
>  <ScrubInfo>  (6) 
{"isomerGroup": 0, "isomerId": 5, "confId": 0, "nr_conformers:": 1, "nr_isomers:": 9}

$$$$
_i6
     RDKit          3D

 48 50  0  0  0  0  0  0  0  0999 V2000
    0.1690   -3.6591    0.2092 N   0  0  0  0  0  0  0  0  0  0  0  0
   -0.5375   -2.5012    0.5134 C   0  0  0  0  0  0  0  0  0  0  0  0
    0.2245   -1.3999    0.4775 C   0  0  0  0  0  0  0  0  0  0  0  0
    0.0966    0.0351    0.7221 C   0  0  0  0  0  0  0  0  0  0  0  0
   -1.0873    0.6526    1.0425 N   0  0  0  0  0  0  0  0  0  0  0  0
   -2.2892    0.6521    0.2877 C   0  0  0  0  0  0  0  0  0  0  0  0
   -2.4356   -0.0301   -0.9237 C   0  0  0  0  0  0  0  0  0  0  0  0
   -3.6632   -0.0398   -1.5903 C   0  0  0  0  0  0  0  0  0  0  0  0
   -4.7683    0.6269   -1.0623 C   0  0  0  0  0  0  0  0  0  0  0  0
   -5.9028    0.5301   -1.8202 O   0  0  0  0  0  0  0  0  0  0  0  0
   -7.0577    1.2148   -1.3519 C   0  0  0  0  0  0  0  0  0  0  0  0
   -4.6405    1.3159    0.1445 C   0  0  0  0  0  0  0  0  0  0  0  0
   -3.4121    1.3310    0.8201 C   0  0  0  0  0  0  0  0  0  0  0  0
   -3.1784    1.9914    2.0055 O   0  0  0  0  0  0  0  0  0  0  0  0
   -4.2797    2.6458    2.6220 C   0  0  0  0  0  0  0  0  0  0  0  0
    1.1828    0.7579    0.6996 N   0  0  0  0  0  0  0  0  0  0  0  0
    2.3859    0.1566    0.4020 C   0  0  0  0  0  0  0  0  0  0  0  0
    3.3906    0.9577    0.4648 N   0  0  0  0  0  0  0  0  0  0  0  0
    4.7125    0.4089    0.1654 C   0  0  0  0  0  0  0  0  0  0  0  0
    5.7608    1.5082    0.3568 C   0  0  0  0  0  0  0  0  0  0  0  0
    7.0924    1.0298    0.1419 O   0  0  0  0  0  0  0  0  0  0  0  0
    7.4324    0.9426   -1.2349 C   0  0  0  0  0  0  0  0  0  0  0  0
    2.5887   -1.1607    0.0555 N   0  0  0  0  0  0  0  0  0  0  0  0
    1.5509   -1.9221    0.0893 C   0  0  0  0  0  0  0  0  0  0  0  0
    1.4521   -3.2880   -0.1827 N   0  0  0  0  0  0  0  0  0  0  0  0
    2.5595   -4.1818    0.1024 C   0  0  0  0  0  0  0  0  0  0  0  0
   -0.3313   -4.2925   -0.4186 H   0  0  0  0  0  0  0  0  0  0  0  0
   -1.5917   -2.5688    0.7430 H   0  0  0  0  0  0  0  0  0  0  0  0
   -0.9543    1.5804    1.4428 H   0  0  0  0  0  0  0  0  0  0  0  0
   -1.5995   -0.5380   -1.3933 H   0  0  0  0  0  0  0  0  0  0  0  0
   -3.7555   -0.5673   -2.5372 H   0  0  0  0  0  0  0  0  0  0  0  0
   -7.3866    0.8176   -0.3860 H   0  0  0  0  0  0  0  0  0  0  0  0
   -7.8628    1.0446   -2.0733 H   0  0  0  0  0  0  0  0  0  0  0  0
   -6.8819    2.2942   -1.2973 H   0  0  0  0  0  0  0  0  0  0  0  0
   -5.4916    1.8410    0.5563 H   0  0  0  0  0  0  0  0  0  0  0  0
   -3.9251    3.0843    3.5597 H   0  0  0  0  0  0  0  0  0  0  0  0
   -5.0755    1.9349    2.8674 H   0  0  0  0  0  0  0  0  0  0  0  0
   -4.6542    3.4611    1.9946 H   0  0  0  0  0  0  0  0  0  0  0  0
    4.7501    0.0402   -0.8659 H   0  0  0  0  0  0  0  0  0  0  0  0
    4.9595   -0.4291    0.8293 H   0  0  0  0  0  0  0  0  0  0  0  0
    5.7171    1.8675    1.3914 H   0  0  0  0  0  0  0  0  0  0  0  0
    5.5562    2.3735   -0.2856 H   0  0  0  0  0  0  0  0  0  0  0  0
    6.8178    0.1965   -1.7451 H   0  0  0  0  0  0  0  0  0  0  0  0
    8.4782    0.6316   -1.3084 H   0  0  0  0  0  0  0  0  0  0  0  0
    7.3270    1.9170   -1.7215 H   0  0  0  0  0  0  0  0  0  0  0  0
    3.4676   -3.8443   -0.4072 H   0  0  0  0  0  0  0  0  0  0  0  0
    2.7567   -4.2265    1.1786 H   0  0  0  0  0  0  0  0  0  0  0  0
    2.3333   -5.1926   -0.2524 H   0  0  0  0  0  0  0  0  0  0  0  0
  1  2  1  0
  2  3  2  0
  3  4  1  0
  4  5  1  0
  5  6  1  0
  6  7  2  0
  7  8  1  0
  8  9  2  0
  9 10  1  0
 10 11  1  0
  9 12  1  0
 12 13  2  0
 13 14  1  0
 14 15  1  0
  4 16  2  0
 16 17  1  0
 17 18  2  3
 18 19  1  0
 19 20  1  0
 20 21  1  0
 21 22  1  0
 17 23  1  0
 23 24  2  0
 24 25  1  0
 25 26  1  0
 25  1  1  0
 24  3  1  0
 13  6  1  0
  1 27  1  0
  2 28  1  0
  5 29  1  0
  7 30  1  0
  8 31  1  0
 11 32  1  0
 11 33  1  0
 11 34  1  0
 12 35  1  0
 15 36  1  0
 15 37  1  0
 15 38  1  0
 19 39  1  0
 19 40  1  0
 20 41  1  0
 20 42  1  0
 22 43  1  0
 22 44  1  0
 22 45  1  0
 26 46  1  0
 26 47  1  0
 26 48  1  0
M  END
>  <ScrubInfo>  (7) 
{"isomerGroup": 0, "isomerId": 6, "confId": 0, "nr_conformers:": 1, "nr_isomers:": 9}

$$$$
_i7
     RDKit          3D

 48 50  0  0  0  0  0  0  0  0999 V2000
   -1.5762   -4.5253   -0.1136 N   0  0  0  0  0  0  0  0  0  0  0  0
   -0.3224   -3.9268   -0.0500 C   0  0  0  0  0  0  0  0  0  0  0  0
   -0.3844   -2.5910   -0.0010 C   0  0  0  0  0  0  0  0  0  0  0  0
    0.5438   -1.4580    0.0425 C   0  0  0  0  0  0  0  0  0  0  0  0
    1.8213   -1.6902    0.0896 N   0  0  0  0  0  0  0  0  0  0  0  0
    2.7239   -0.6104    0.1251 C   0  0  0  0  0  0  0  0  0  0  0  0
    3.4802   -0.4359    1.2882 C   0  0  0  0  0  0  0  0  0  0  0  0
    4.4153    0.5972    1.3912 C   0  0  0  0  0  0  0  0  0  0  0  0
    4.6094    1.4662    0.3203 C   0  0  0  0  0  0  0  0  0  0  0  0
    5.4840    2.5182    0.2888 O   0  0  0  0  0  0  0  0  0  0  0  0
    6.2767    2.7324    1.4502 C   0  0  0  0  0  0  0  0  0  0  0  0
    3.8673    1.2920   -0.8540 C   0  0  0  0  0  0  0  0  0  0  0  0
    2.9329    0.2562   -0.9675 C   0  0  0  0  0  0  0  0  0  0  0  0
    2.1562    0.0296   -2.0768 O   0  0  0  0  0  0  0  0  0  0  0  0
    2.4831    0.7475   -3.2593 C   0  0  0  0  0  0  0  0  0  0  0  0
   -0.1150   -0.2542    0.0313 N   0  0  0  0  0  0  0  0  0  0  0  0
   -1.4687   -0.0613   -0.0369 C   0  0  0  0  0  0  0  0  0  0  0  0
   -1.9104    1.1522   -0.1061 N   0  0  0  0  0  0  0  0  0  0  0  0
   -3.3598    1.3611   -0.1986 C   0  0  0  0  0  0  0  0  0  0  0  0
   -3.9978    1.4110    1.1922 C   0  0  0  0  0  0  0  0  0  0  0  0
   -5.4077    1.6501    1.1333 O   0  0  0  0  0  0  0  0  0  0  0  0
   -5.7307    3.0191    0.9334 C   0  0  0  0  0  0  0  0  0  0  0  0
   -2.3552   -1.1184   -0.0202 N   0  0  0  0  0  0  0  0  0  0  0  0
   -1.8543   -2.3139    0.0095 C   0  0  0  0  0  0  0  0  0  0  0  0
   -2.5399   -3.5313    0.0452 N   0  0  0  0  0  0  0  0  0  0  0  0
   -3.8252   -3.6823   -0.6095 C   0  0  0  0  0  0  0  0  0  0  0  0
   -1.6658   -5.3399    0.4977 H   0  0  0  0  0  0  0  0  0  0  0  0
    0.5669   -4.5412   -0.0424 H   0  0  0  0  0  0  0  0  0  0  0  0
    3.3378   -1.1192    2.1218 H   0  0  0  0  0  0  0  0  0  0  0  0
    4.9728    0.6893    2.3170 H   0  0  0  0  0  0  0  0  0  0  0  0
    6.9191    3.5978    1.2613 H   0  0  0  0  0  0  0  0  0  0  0  0
    6.9256    1.8730    1.6493 H   0  0  0  0  0  0  0  0  0  0  0  0
    5.6505    2.9654    2.3177 H   0  0  0  0  0  0  0  0  0  0  0  0
    4.0420    1.9900   -1.6664 H   0  0  0  0  0  0  0  0  0  0  0  0
    2.2714    1.8148   -3.1397 H   0  0  0  0  0  0  0  0  0  0  0  0
    3.5247    0.5797   -3.5531 H   0  0  0  0  0  0  0  0  0  0  0  0
    1.8455    0.3712   -4.0651 H   0  0  0  0  0  0  0  0  0  0  0  0
    0.4312    0.5907   -0.0313 H   0  0  0  0  0  0  0  0  0  0  0  0
   -3.8630    0.6213   -0.8337 H   0  0  0  0  0  0  0  0  0  0  0  0
   -3.5185    2.3152   -0.7127 H   0  0  0  0  0  0  0  0  0  0  0  0
   -3.5107    2.1619    1.8264 H   0  0  0  0  0  0  0  0  0  0  0  0
   -3.8648    0.4461    1.6928 H   0  0  0  0  0  0  0  0  0  0  0  0
   -5.3031    3.6371    1.7288 H   0  0  0  0  0  0  0  0  0  0  0  0
   -5.3842    3.3666   -0.0432 H   0  0  0  0  0  0  0  0  0  0  0  0
   -6.8191    3.1204    0.9652 H   0  0  0  0  0  0  0  0  0  0  0  0
   -4.2477   -4.6693   -0.3956 H   0  0  0  0  0  0  0  0  0  0  0  0
   -3.7239   -3.5748   -1.6945 H   0  0  0  0  0  0  0  0  0  0  0  0
   -4.5334   -2.9303   -0.2471 H   0  0  0  0  0  0  0  0  0  0  0  0
  1  2  1  0
  2  3  2  0
  3  4  1  0
  4  5  2  3
  5  6  1  0
  6  7  2  0
  7  8  1  0
  8  9  2  0
  9 10  1  0
 10 11  1  0
  9 12  1  0
 12 13  2  0
 13 14  1  0
 14 15  1  0
  4 16  1  0
 16 17  1  0
 17 18  2  3
 18 19  1  0
 19 20  1  0
 20 21  1  0
 21 22  1  0
 17 23  1  0
 23 24  2  0
 24 25  1  0
 25 26  1  0
 25  1  1  0
 24  3  1  0
 13  6  1  0
  1 27  1  0
  2 28  1  0
  7 29  1  0
  8 30  1  0
 11 31  1  0
 11 32  1  0
 11 33  1  0
 12 34  1  0
 15 35  1  0
 15 36  1  0
 15 37  1  0
 16 38  1  0
 19 39  1  0
 19 40  1  0
 20 41  1  0
 20 42  1  0
 22 43  1  0
 22 44  1  0
 22 45  1  0
 26 46  1  0
 26 47  1  0
 26 48  1  0
M  END
>  <ScrubInfo>  (8) 
{"isomerGroup": 0, "isomerId": 7, "confId": 0, "nr_conformers:": 1, "nr_isomers:": 9}

$$$$
_i8
     RDKit          3D

 48 50  0  0  0  0  0  0  0  0999 V2000
    2.4244   -0.1286   -0.2366 N   0  0  0  0  0  0  0  0  0  0  0  0
    2.2786    0.6716   -1.3579 C   0  0  0  0  0  0  0  0  0  0  0  0
    3.1981    1.1248   -2.1396 N   0  0  0  0  0  0  0  0  0  0  0  0
    4.5996    0.7922   -1.8968 C   0  0  0  0  0  0  0  0  0  0  0  0
    5.2461    1.8266   -0.9726 C   0  0  0  0  0  0  0  0  0  0  0  0
    6.6122    1.5054   -0.7036 O   0  0  0  0  0  0  0  0  0  0  0  0
    6.7712    0.6051    0.3827 C   0  0  0  0  0  0  0  0  0  0  0  0
    0.9686    1.0054   -1.6208 N   0  0  0  0  0  0  0  0  0  0  0  0
   -0.2117    0.6778   -0.9887 C   0  0  0  0  0  0  0  0  0  0  0  0
   -1.3517    1.1079   -1.4382 N   0  0  0  0  0  0  0  0  0  0  0  0
   -2.5721    0.7440   -0.8534 C   0  0  0  0  0  0  0  0  0  0  0  0
   -3.2122    1.6672   -0.0204 C   0  0  0  0  0  0  0  0  0  0  0  0
   -4.4490    1.3725    0.5583 C   0  0  0  0  0  0  0  0  0  0  0  0
   -5.0651    0.1509    0.2947 C   0  0  0  0  0  0  0  0  0  0  0  0
   -6.2692   -0.2645    0.7953 O   0  0  0  0  0  0  0  0  0  0  0  0
   -6.9489    0.6315    1.6661 C   0  0  0  0  0  0  0  0  0  0  0  0
   -4.4404   -0.7705   -0.5551 C   0  0  0  0  0  0  0  0  0  0  0  0
   -3.2016   -0.4843   -1.1397 C   0  0  0  0  0  0  0  0  0  0  0  0
   -2.5167   -1.3298   -1.9772 O   0  0  0  0  0  0  0  0  0  0  0  0
   -3.1360   -2.5647   -2.3078 C   0  0  0  0  0  0  0  0  0  0  0  0
    0.0437   -0.1490    0.1794 C   0  0  0  0  0  0  0  0  0  0  0  0
   -0.7073   -0.7399    1.2124 C   0  0  0  0  0  0  0  0  0  0  0  0
    0.0507   -1.4188    2.0870 N   0  0  0  0  0  0  0  0  0  0  0  0
    1.3035   -1.2743    1.6056 N   0  0  0  0  0  0  0  0  0  0  0  0
    2.4013   -1.8897    2.3078 C   0  0  0  0  0  0  0  0  0  0  0  0
    1.3410   -0.5064    0.4820 C   0  0  0  0  0  0  0  0  0  0  0  0
    3.3599   -0.4135    0.0129 H   0  0  0  0  0  0  0  0  0  0  0  0
    4.7298   -0.2284   -1.5218 H   0  0  0  0  0  0  0  0  0  0  0  0
    5.1286    0.7983   -2.8576 H   0  0  0  0  0  0  0  0  0  0  0  0
    5.2358    2.8040   -1.4682 H   0  0  0  0  0  0  0  0  0  0  0  0
    4.6873    1.9413   -0.0360 H   0  0  0  0  0  0  0  0  0  0  0  0
    7.8393    0.4133    0.5159 H   0  0  0  0  0  0  0  0  0  0  0  0
    6.3809    1.0465    1.3048 H   0  0  0  0  0  0  0  0  0  0  0  0
    6.2711   -0.3462    0.1817 H   0  0  0  0  0  0  0  0  0  0  0  0
    0.8453    1.5714   -2.4481 H   0  0  0  0  0  0  0  0  0  0  0  0
   -2.7398    2.6267    0.1741 H   0  0  0  0  0  0  0  0  0  0  0  0
   -4.9020    2.1197    1.2009 H   0  0  0  0  0  0  0  0  0  0  0  0
   -6.3597    0.8289    2.5677 H   0  0  0  0  0  0  0  0  0  0  0  0
   -7.8821    0.1520    1.9768 H   0  0  0  0  0  0  0  0  0  0  0  0
   -7.2082    1.5621    1.1505 H   0  0  0  0  0  0  0  0  0  0  0  0
   -4.9521   -1.7091   -0.7411 H   0  0  0  0  0  0  0  0  0  0  0  0
   -4.0874   -2.4047   -2.8256 H   0  0  0  0  0  0  0  0  0  0  0  0
   -2.4709   -3.0990   -2.9930 H   0  0  0  0  0  0  0  0  0  0  0  0
   -3.2678   -3.1899   -1.4186 H   0  0  0  0  0  0  0  0  0  0  0  0
   -1.7737   -0.7110    1.3872 H   0  0  0  0  0  0  0  0  0  0  0  0
    2.0548   -2.8182    2.7694 H   0  0  0  0  0  0  0  0  0  0  0  0
    2.7498   -1.1915    3.0724 H   0  0  0  0  0  0  0  0  0  0  0  0
    3.2042   -2.1150    1.6021 H   0  0  0  0  0  0  0  0  0  0  0  0
  1  2  1  0
  2  3  2  3
  3  4  1  0
  4  5  1  0
  5  6  1  0
  6  7  1  0
  2  8  1  0
  8  9  1  0
  9 10  2  3
 10 11  1  0
 11 12  2  0
 12 13  1  0
 13 14  2  0
 14 15  1  0
 15 16  1  0
 14 17  1  0
 17 18  2  0
 18 19  1  0
 19 20  1  0
  9 21  1  0
 21 22  1  0
 22 23  2  0
 23 24  1  0
 24 25  1  0
 24 26  1  0
 26  1  1  0
 18 11  1  0
 26 21  2  0
  1 27  1  0
  4 28  1  0
  4 29  1  0
  5 30  1  0
  5 31  1  0
  7 32  1  0
  7 33  1  0
  7 34  1  0
  8 35  1  0
 12 36  1  0
 13 37  1  0
 16 38  1  0
 16 39  1  0
 16 40  1  0
 17 41  1  0
 20 42  1  0
 20 43  1  0
 20 44  1  0
 22 45  1  0
 25 46  1  0
 25 47  1  0
 25 48  1  0
M  END
>  <ScrubInfo>  (9) 
{"isomerGroup": 0, "isomerId": 8, "confId": 0, "nr_conformers:": 1, "nr_isomers:": 9}

$$$$
