REMARK SMILES COCCNc1nc(Nc2ccc(OC)cc2OC)c2cnn(C)c2n1
REMARK SMILES IDX 6 1 7 2 8 3 20 4 21 5 22 6 23 7 24 8 25 9 26 10 5 11 4 13
REMARK SMILES IDX 3 14 2 15 1 16 9 17 10 19 11 20 17 21 12 22 16 23 13 24
REMARK SMILES IDX 18 25 19 26 14 27 15 28
REMARK H PARENT 5 12 9 18
ROOT
ATOM      1  C   UNL     1      -2.352  -1.100   0.472  1.00  0.00     0.226 A 
ATOM      2  N   UNL     1      -1.101  -0.635   0.287  1.00  0.00    -0.195 NA
ATOM      3  C   UNL     1      -0.052  -1.486   0.137  1.00  0.00     0.147 A 
ATOM      4  C   UNL     1      -0.343  -2.855   0.178  1.00  0.00     0.082 A 
ATOM      5  C   UNL     1       0.346  -4.082   0.078  1.00  0.00     0.149 A 
ATOM      6  N   UNL     1      -0.460  -5.144   0.194  1.00  0.00    -0.179 NA
ATOM      7  N   UNL     1      -1.679  -4.586   0.379  1.00  0.00    -0.250 N 
ATOM      8  C   UNL     1      -2.829  -5.436   0.558  1.00  0.00     0.176 C 
ATOM      9  C   UNL     1      -1.661  -3.218   0.370  1.00  0.00     0.165 A 
ATOM     10  N   UNL     1      -2.705  -2.390   0.518  1.00  0.00    -0.193 NA
ENDROOT
BRANCH   1  11
ATOM     11  N   UNL     1      -3.395  -0.201   0.622  1.00  0.00    -0.352 N 
ATOM     12  H   UNL     1      -4.266  -0.698   0.476  1.00  0.00     0.163 HD
BRANCH  11  13
ATOM     13  C   UNL     1      -3.244   1.061  -0.085  1.00  0.00     0.144 C 
BRANCH  13  14
ATOM     14  C   UNL     1      -4.591   1.796  -0.193  1.00  0.00     0.181 C 
BRANCH  14  15
ATOM     15  O   UNL     1      -5.283   1.965   1.048  1.00  0.00    -0.383 OA
ATOM     16  C   UNL     1      -4.594   2.794   1.973  1.00  0.00     0.194 C 
ENDBRANCH  14  15
ENDBRANCH  13  14
ENDBRANCH  11  13
ENDBRANCH   1  11
BRANCH   3  17
ATOM     17  N   UNL     1       1.252  -1.029  -0.069  1.00  0.00    -0.336 N 
ATOM     18  H   UNL     1       1.943  -1.750  -0.246  1.00  0.00     0.168 HD
BRANCH  17  19
ATOM     19  C   UNL     1       1.835   0.255  -0.117  1.00  0.00     0.083 A 
ATOM     20  C   UNL     1       1.139   1.431   0.163  1.00  0.00     0.034 A 
ATOM     21  C   UNL     1       3.202   0.352  -0.478  1.00  0.00     0.146 A 
ATOM     22  C   UNL     1       1.775   2.673   0.085  1.00  0.00     0.049 A 
ATOM     23  C   UNL     1       3.834   1.601  -0.554  1.00  0.00     0.095 A 
ATOM     24  C   UNL     1       3.119   2.766  -0.273  1.00  0.00     0.122 A 
BRANCH  21  25
ATOM     25  O   UNL     1       3.815  -0.858  -0.733  1.00  0.00    -0.494 OA
ATOM     26  C   UNL     1       5.185  -0.825  -1.110  1.00  0.00     0.278 C 
ENDBRANCH  21  25
BRANCH  24  27
ATOM     27  O   UNL     1       3.609   4.043  -0.308  1.00  0.00    -0.497 OA
ATOM     28  C   UNL     1       4.978   4.203  -0.657  1.00  0.00     0.278 C 
ENDBRANCH  24  27
ENDBRANCH  17  19
ENDBRANCH   3  17
TORSDOF 8
