REMARK SMILES COc1ccc(Nc2nc(NC[C@H]3CCCO3)nc(N)c2[N+](=O)[O-])cc1
REMARK SMILES IDX 8 1 9 2 10 3 18 4 19 5 21 6 7 7 6 9 3 10 4 11 26 12 5 13
REMARK SMILES IDX 25 14 2 15 1 16 22 17 23 18 24 19 11 20 12 22 13 23 14 24
REMARK SMILES IDX 17 25 15 26 16 27 20 28
REMARK H PARENT 7 8 11 21 20 29 20 30
ROOT
ATOM      1  C   UNL     1       0.722   0.782   1.543  1.00  0.00     0.217 A 
ATOM      2  N   UNL     1      -0.589   0.478   1.512  1.00  0.00    -0.188 NA
ATOM      3  C   UNL     1      -1.452   1.444   1.174  1.00  0.00     0.227 A 
ATOM      4  N   UNL     1      -1.088   2.689   0.849  1.00  0.00    -0.189 NA
ATOM      5  C   UNL     1       0.216   3.005   0.889  1.00  0.00     0.210 A 
ATOM      6  C   UNL     1       1.153   2.060   1.257  1.00  0.00     0.353 A 
ENDROOT
BRANCH   1   7
ATOM      7  N   UNL     1       1.563  -0.288   1.892  1.00  0.00    -0.334 N 
ATOM      8  H   UNL     1       0.935  -1.072   2.089  1.00  0.00     0.168 HD
BRANCH   7   9
ATOM      9  C   UNL     1       2.661  -0.776   1.145  1.00  0.00     0.040 A 
ATOM     10  C   UNL     1       4.819  -1.913  -0.272  1.00  0.00     0.119 A 
ATOM     11  C   UNL     1       3.840  -1.185  -0.947  1.00  0.00     0.048 A 
ATOM     12  C   UNL     1       4.703  -2.091   1.106  1.00  0.00     0.048 A 
ATOM     13  C   UNL     1       2.762  -0.631  -0.243  1.00  0.00     0.030 A 
ATOM     14  C   UNL     1       3.629  -1.537   1.808  1.00  0.00     0.030 A 
BRANCH  10  15
ATOM     15  O   UNL     1       5.915  -2.505  -0.836  1.00  0.00    -0.497 OA
ATOM     16  C   UNL     1       6.117  -2.290  -2.227  1.00  0.00     0.278 C 
ENDBRANCH  10  15
ENDBRANCH   7   9
ENDBRANCH   1   7
BRANCH   6  17
ATOM     17  N   UNL     1       2.528   2.425   1.363  1.00  0.00     0.070 N 
ATOM     18  O   UNL     1       3.095   2.776   0.316  1.00  0.00    -0.258 OA
ATOM     19  O   UNL     1       3.031   2.446   2.494  1.00  0.00    -0.258 OA
ENDBRANCH   6  17
BRANCH   3  20
ATOM     20  N   UNL     1      -2.816   1.196   1.142  1.00  0.00    -0.351 N 
ATOM     21  H   UNL     1      -3.217   1.975   0.630  1.00  0.00     0.163 HD
BRANCH  20  22
ATOM     22  C   UNL     1      -3.180  -0.133   0.667  1.00  0.00     0.148 C 
BRANCH  22  23
ATOM     23  C   UNL     1      -4.709  -0.320   0.651  1.00  0.00     0.137 C 
ATOM     24  C   UNL     1      -5.422   0.496  -0.423  1.00  0.00     0.036 C 
ATOM     25  O   UNL     1      -5.001  -1.706   0.363  1.00  0.00    -0.376 OA
ATOM     26  C   UNL     1      -5.514  -0.470  -1.577  1.00  0.00     0.031 C 
ATOM     27  C   UNL     1      -5.738  -1.782  -0.863  1.00  0.00     0.160 C 
ENDBRANCH  22  23
ENDBRANCH  20  22
ENDBRANCH   3  20
BRANCH   5  28
ATOM     28  N   UNL     1       0.517   4.340   0.586  1.00  0.00    -0.378 N 
ATOM     29  H   UNL     1       1.236   4.400  -0.137  1.00  0.00     0.158 HD
ATOM     30  H   UNL     1       0.865   4.835   1.405  1.00  0.00     0.158 HD
ENDBRANCH   5  28
TORSDOF 8
