_i0
     RDKit          3D

 46 48  0  0  0  0  0  0  0  0999 V2000
    6.1174   -2.2899   -2.2271 C   0  0  0  0  0  0  0  0  0  0  0  0
    5.9152   -2.5045   -0.8361 O   0  0  0  0  0  0  0  0  0  0  0  0
    4.8194   -1.9130   -0.2724 C   0  0  0  0  0  0  0  0  0  0  0  0
    3.8404   -1.1849   -0.9466 C   0  0  0  0  0  0  0  0  0  0  0  0
    2.7623   -0.6307   -0.2433 C   0  0  0  0  0  0  0  0  0  0  0  0
    2.6609   -0.7765    1.1448 C   0  0  0  0  0  0  0  0  0  0  0  0
    1.5629   -0.2883    1.8923 N   0  0  0  0  0  0  0  0  0  0  0  0
    0.7222    0.7823    1.5429 C   0  0  0  0  0  0  0  0  0  0  0  0
   -0.5888    0.4785    1.5124 N   0  0  0  0  0  0  0  0  0  0  0  0
   -1.4521    1.4440    1.1736 C   0  0  0  0  0  0  0  0  0  0  0  0
   -2.8157    1.1956    1.1420 N   0  0  0  0  0  0  0  0  0  0  0  0
   -3.1804   -0.1327    0.6668 C   0  0  0  0  0  0  0  0  0  0  0  0
   -4.7094   -0.3203    0.6507 C   0  0  0  0  0  0  0  0  0  0  0  0
   -5.4218    0.4963   -0.4228 C   0  0  0  0  0  0  0  0  0  0  0  0
   -5.5139   -0.4701   -1.5771 C   0  0  0  0  0  0  0  0  0  0  0  0
   -5.7384   -1.7820   -0.8634 C   0  0  0  0  0  0  0  0  0  0  0  0
   -5.0013   -1.7064    0.3630 O   0  0  0  0  0  0  0  0  0  0  0  0
   -1.0880    2.6888    0.8487 N   0  0  0  0  0  0  0  0  0  0  0  0
    0.2160    3.0046    0.8886 C   0  0  0  0  0  0  0  0  0  0  0  0
    0.5175    4.3399    0.5856 N   0  0  0  0  0  0  0  0  0  0  0  0
    1.1527    2.0602    1.2568 C   0  0  0  0  0  0  0  0  0  0  0  0
    2.5282    2.4254    1.3630 N   0  0  0  0  0  4  0  0  0  0  0  0
    3.0948    2.7756    0.3164 O   0  0  0  0  0  0  0  0  0  0  0  0
    3.0310    2.4462    2.4938 O   0  0  0  0  0  1  0  0  0  0  0  0
    3.6286   -1.5371    1.8075 C   0  0  0  0  0  0  0  0  0  0  0  0
    4.7028   -2.0911    1.1064 C   0  0  0  0  0  0  0  0  0  0  0  0
    6.2318   -1.2241   -2.4513 H   0  0  0  0  0  0  0  0  0  0  0  0
    5.3072   -2.7334   -2.8153 H   0  0  0  0  0  0  0  0  0  0  0  0
    7.0476   -2.7915   -2.5110 H   0  0  0  0  0  0  0  0  0  0  0  0
    3.8783   -1.0352   -2.0204 H   0  0  0  0  0  0  0  0  0  0  0  0
    2.0032   -0.0955   -0.8075 H   0  0  0  0  0  0  0  0  0  0  0  0
    0.9353   -1.0717    2.0890 H   0  0  0  0  0  0  0  0  0  0  0  0
   -3.2169    1.9753    0.6300 H   0  0  0  0  0  0  0  0  0  0  0  0
   -2.7723   -0.3138   -0.3363 H   0  0  0  0  0  0  0  0  0  0  0  0
   -2.7550   -0.9046    1.3217 H   0  0  0  0  0  0  0  0  0  0  0  0
   -5.1150   -0.0859    1.6418 H   0  0  0  0  0  0  0  0  0  0  0  0
   -6.4342    0.7421   -0.0785 H   0  0  0  0  0  0  0  0  0  0  0  0
   -4.9268    1.4344   -0.6857 H   0  0  0  0  0  0  0  0  0  0  0  0
   -4.5619   -0.4941   -2.1199 H   0  0  0  0  0  0  0  0  0  0  0  0
   -6.3087   -0.2296   -2.2878 H   0  0  0  0  0  0  0  0  0  0  0  0
   -5.3991   -2.6429   -1.4457 H   0  0  0  0  0  0  0  0  0  0  0  0
   -6.7953   -1.9227   -0.6126 H   0  0  0  0  0  0  0  0  0  0  0  0
    1.2358    4.4004   -0.1368 H   0  0  0  0  0  0  0  0  0  0  0  0
    0.8645    4.8349    1.4047 H   0  0  0  0  0  0  0  0  0  0  0  0
    3.5630   -1.6877    2.8827 H   0  0  0  0  0  0  0  0  0  0  0  0
    5.4559   -2.6644    1.6416 H   0  0  0  0  0  0  0  0  0  0  0  0
  1  2  1  0
  2  3  1  0
  3  4  2  0
  4  5  1  0
  5  6  2  0
  6  7  1  0
  7  8  1  0
  8  9  2  0
  9 10  1  0
 10 11  1  0
 11 12  1  0
 12 13  1  0
 13 14  1  0
 14 15  1  0
 15 16  1  0
 16 17  1  0
 10 18  2  0
 18 19  1  0
 19 20  1  0
 19 21  2  0
 21 22  1  0
 22 23  2  0
 22 24  1  0
  6 25  1  0
 25 26  2  0
 26  3  1  0
 21  8  1  0
 17 13  1  0
  1 27  1  0
  1 28  1  0
  1 29  1  0
  4 30  1  0
  5 31  1  0
  7 32  1  0
 11 33  1  0
 12 34  1  0
 12 35  1  0
 13 36  1  0
 14 37  1  0
 14 38  1  0
 15 39  1  0
 15 40  1  0
 16 41  1  0
 16 42  1  0
 20 43  1  0
 20 44  1  0
 25 45  1  0
 26 46  1  0
M  CHG  2  22   1  24  -1
M  END
>  <ScrubInfo>  (1) 
{"isomerGroup": 0, "isomerId": 0, "confId": 0, "nr_conformers:": 1, "nr_isomers:": 9}

$$$$
_i1
     RDKit          3D

 46 48  0  0  0  0  0  0  0  0999 V2000
    0.3862   -0.8352    0.4687 N   0  0  0  0  0  0  0  0  0  0  0  0
   -0.8893   -0.8828    0.9423 C   0  0  0  0  0  0  0  0  0  0  0  0
   -1.2904    0.2855    1.5221 N   0  0  0  0  0  0  0  0  0  0  0  0
   -2.6499    0.4747    2.0216 C   0  0  0  0  0  0  0  0  0  0  0  0
   -3.7008    0.5597    0.9089 C   0  0  0  0  0  0  0  0  0  0  0  0
   -3.4183    1.6232   -0.1413 C   0  0  0  0  0  0  0  0  0  0  0  0
   -4.7997    1.8765   -0.6910 C   0  0  0  0  0  0  0  0  0  0  0  0
   -5.6586    1.7853    0.5524 C   0  0  0  0  0  0  0  0  0  0  0  0
   -4.9834    0.9117    1.4703 O   0  0  0  0  0  0  0  0  0  0  0  0
   -1.6349   -1.9465    0.8640 N   0  0  0  0  0  0  0  0  0  0  0  0
   -1.1267   -3.0774    0.2303 C   0  0  0  0  0  0  0  0  0  0  0  0
   -2.0223   -4.1355    0.1374 N   0  0  0  0  0  0  0  0  0  0  0  0
    0.1420   -3.1124   -0.2489 C   0  0  0  0  0  0  0  0  0  0  0  0
    0.6201   -4.2809   -0.9178 N   0  0  0  0  0  4  0  0  0  0  0  0
    0.9920   -4.1578   -2.0931 O   0  0  0  0  0  0  0  0  0  0  0  0
    0.5965   -5.3493   -0.2840 O   0  0  0  0  0  1  0  0  0  0  0  0
    1.0198   -1.9275   -0.0862 C   0  0  0  0  0  0  0  0  0  0  0  0
    2.2779   -1.9816   -0.4242 N   0  0  0  0  0  0  0  0  0  0  0  0
    3.0872   -0.8524   -0.2607 C   0  0  0  0  0  0  0  0  0  0  0  0
    3.2628    0.0421   -1.3177 C   0  0  0  0  0  0  0  0  0  0  0  0
    4.0589    1.1825   -1.1622 C   0  0  0  0  0  0  0  0  0  0  0  0
    4.6943    1.4298    0.0550 C   0  0  0  0  0  0  0  0  0  0  0  0
    5.4900    2.5032    0.3432 O   0  0  0  0  0  0  0  0  0  0  0  0
    5.7899    3.3878   -0.7297 C   0  0  0  0  0  0  0  0  0  0  0  0
    4.5306    0.5252    1.1075 C   0  0  0  0  0  0  0  0  0  0  0  0
    3.7395   -0.6150    0.9491 C   0  0  0  0  0  0  0  0  0  0  0  0
    0.9608   -0.0497    0.7321 H   0  0  0  0  0  0  0  0  0  0  0  0
   -0.8817    1.1342    1.1499 H   0  0  0  0  0  0  0  0  0  0  0  0
   -2.9142   -0.3272    2.7222 H   0  0  0  0  0  0  0  0  0  0  0  0
   -2.6744    1.3951    2.6180 H   0  0  0  0  0  0  0  0  0  0  0  0
   -3.8238   -0.4160    0.4238 H   0  0  0  0  0  0  0  0  0  0  0  0
   -3.0330    2.5395    0.3222 H   0  0  0  0  0  0  0  0  0  0  0  0
   -2.7060    1.2941   -0.9030 H   0  0  0  0  0  0  0  0  0  0  0  0
   -4.8992    2.8342   -1.2086 H   0  0  0  0  0  0  0  0  0  0  0  0
   -5.0727    1.0796   -1.3931 H   0  0  0  0  0  0  0  0  0  0  0  0
   -6.6591    1.3966    0.3424 H   0  0  0  0  0  0  0  0  0  0  0  0
   -5.7585    2.7618    1.0374 H   0  0  0  0  0  0  0  0  0  0  0  0
   -2.7540   -4.0097    0.8347 H   0  0  0  0  0  0  0  0  0  0  0  0
   -1.5763   -5.0512    0.2183 H   0  0  0  0  0  0  0  0  0  0  0  0
    2.7820   -0.1559   -2.2728 H   0  0  0  0  0  0  0  0  0  0  0  0
    4.1654    1.8491   -2.0113 H   0  0  0  0  0  0  0  0  0  0  0  0
    6.4717    4.1548   -0.3498 H   0  0  0  0  0  0  0  0  0  0  0  0
    6.2990    2.8635   -1.5453 H   0  0  0  0  0  0  0  0  0  0  0  0
    4.8863    3.8927   -1.0866 H   0  0  0  0  0  0  0  0  0  0  0  0
    5.0354    0.7030    2.0542 H   0  0  0  0  0  0  0  0  0  0  0  0
    3.6386   -1.3213    1.7687 H   0  0  0  0  0  0  0  0  0  0  0  0
  1  2  1  0
  2  3  1  0
  3  4  1  0
  4  5  1  0
  5  6  1  0
  6  7  1  0
  7  8  1  0
  8  9  1  0
  2 10  2  0
 10 11  1  0
 11 12  1  0
 11 13  2  0
 13 14  1  0
 14 15  2  0
 14 16  1  0
 13 17  1  0
 17 18  2  3
 18 19  1  0
 19 20  2  0
 20 21  1  0
 21 22  2  0
 22 23  1  0
 23 24  1  0
 22 25  1  0
 25 26  2  0
 17  1  1  0
 26 19  1  0
  9  5  1  0
  1 27  1  0
  3 28  1  0
  4 29  1  0
  4 30  1  0
  5 31  1  0
  6 32  1  0
  6 33  1  0
  7 34  1  0
  7 35  1  0
  8 36  1  0
  8 37  1  0
 12 38  1  0
 12 39  1  0
 20 40  1  0
 21 41  1  0
 24 42  1  0
 24 43  1  0
 24 44  1  0
 25 45  1  0
 26 46  1  0
M  CHG  2  14   1  16  -1
M  END
>  <ScrubInfo>  (2) 
{"isomerGroup": 0, "isomerId": 1, "confId": 0, "nr_conformers:": 1, "nr_isomers:": 9}

$$$$
_i2
     RDKit          3D

 46 48  0  0  0  0  0  0  0  0999 V2000
   -1.1759    0.4460   -0.3621 N   0  0  0  0  0  0  0  0  0  0  0  0
   -0.1875    0.5617    0.5978 C   0  0  0  0  0  0  0  0  0  0  0  0
    0.8146   -0.3977    0.6295 N   0  0  0  0  0  0  0  0  0  0  0  0
    2.1821   -0.1734    0.3309 C   0  0  0  0  0  0  0  0  0  0  0  0
    3.0752   -1.2398    0.4971 C   0  0  0  0  0  0  0  0  0  0  0  0
    4.4428   -1.0762    0.2574 C   0  0  0  0  0  0  0  0  0  0  0  0
    4.9514    0.1594   -0.1402 C   0  0  0  0  0  0  0  0  0  0  0  0
    6.3030    0.1857   -0.3414 O   0  0  0  0  0  0  0  0  0  0  0  0
    6.8770    1.4407   -0.6847 C   0  0  0  0  0  0  0  0  0  0  0  0
    4.0755    1.2313   -0.2961 C   0  0  0  0  0  0  0  0  0  0  0  0
    2.7034    1.0662   -0.0568 C   0  0  0  0  0  0  0  0  0  0  0  0
   -0.3197    1.5979    1.4531 C   0  0  0  0  0  0  0  0  0  0  0  0
    0.5827    1.7828    2.5475 N   0  0  0  0  0  4  0  0  0  0  0  0
    1.1239    2.8972    2.6325 O   0  0  0  0  0  0  0  0  0  0  0  0
    0.7201    0.8590    3.3610 O   0  0  0  0  0  1  0  0  0  0  0  0
   -1.4737    2.5289    1.2908 C   0  0  0  0  0  0  0  0  0  0  0  0
   -1.6664    3.6409    2.0793 N   0  0  0  0  0  0  0  0  0  0  0  0
   -2.3924    2.3463    0.3769 N   0  0  0  0  0  0  0  0  0  0  0  0
   -2.2737    1.2581   -0.4538 C   0  0  0  0  0  0  0  0  0  0  0  0
   -3.2607    1.1230   -1.2638 N   0  0  0  0  0  0  0  0  0  0  0  0
   -3.2485    0.0644   -2.2779 C   0  0  0  0  0  0  0  0  0  0  0  0
   -3.5411   -1.3318   -1.7195 C   0  0  0  0  0  0  0  0  0  0  0  0
   -4.7581   -1.4431   -0.8170 C   0  0  0  0  0  0  0  0  0  0  0  0
   -4.4418   -2.7033   -0.0510 C   0  0  0  0  0  0  0  0  0  0  0  0
   -2.9475   -2.5794    0.1597 C   0  0  0  0  0  0  0  0  0  0  0  0
   -2.4171   -1.8414   -0.9588 O   0  0  0  0  0  0  0  0  0  0  0  0
   -1.2496   -0.4539   -0.8279 H   0  0  0  0  0  0  0  0  0  0  0  0
    0.5225   -1.2826    0.2178 H   0  0  0  0  0  0  0  0  0  0  0  0
    2.7166   -2.2101    0.8321 H   0  0  0  0  0  0  0  0  0  0  0  0
    5.1177   -1.9177    0.3938 H   0  0  0  0  0  0  0  0  0  0  0  0
    7.9576    1.2985   -0.7821 H   0  0  0  0  0  0  0  0  0  0  0  0
    6.4997    1.7956   -1.6494 H   0  0  0  0  0  0  0  0  0  0  0  0
    6.7084    2.1821    0.1035 H   0  0  0  0  0  0  0  0  0  0  0  0
    4.4226    2.2127   -0.6022 H   0  0  0  0  0  0  0  0  0  0  0  0
    2.0603    1.9288   -0.2034 H   0  0  0  0  0  0  0  0  0  0  0  0
   -0.8335    4.1124    2.4280 H   0  0  0  0  0  0  0  0  0  0  0  0
   -2.3518    4.2794    1.6840 H   0  0  0  0  0  0  0  0  0  0  0  0
   -2.2917    0.0679   -2.8146 H   0  0  0  0  0  0  0  0  0  0  0  0
   -4.0197    0.3157   -3.0152 H   0  0  0  0  0  0  0  0  0  0  0  0
   -3.6559   -2.0183   -2.5685 H   0  0  0  0  0  0  0  0  0  0  0  0
   -4.8251   -0.6032   -0.1167 H   0  0  0  0  0  0  0  0  0  0  0  0
   -5.6963   -1.4997   -1.3757 H   0  0  0  0  0  0  0  0  0  0  0  0
   -4.6607   -3.5806   -0.6713 H   0  0  0  0  0  0  0  0  0  0  0  0
   -4.9975   -2.8003    0.8853 H   0  0  0  0  0  0  0  0  0  0  0  0
   -2.4501   -3.5510    0.2248 H   0  0  0  0  0  0  0  0  0  0  0  0
   -2.7214   -2.0097    1.0673 H   0  0  0  0  0  0  0  0  0  0  0  0
  1  2  1  0
  2  3  1  0
  3  4  1  0
  4  5  2  0
  5  6  1  0
  6  7  2  0
  7  8  1  0
  8  9  1  0
  7 10  1  0
 10 11  2  0
  2 12  2  0
 12 13  1  0
 13 14  2  0
 13 15  1  0
 12 16  1  0
 16 17  1  0
 16 18  2  0
 18 19  1  0
 19 20  2  3
 20 21  1  0
 21 22  1  0
 22 23  1  0
 23 24  1  0
 24 25  1  0
 25 26  1  0
 19  1  1  0
 26 22  1  0
 11  4  1  0
  1 27  1  0
  3 28  1  0
  5 29  1  0
  6 30  1  0
  9 31  1  0
  9 32  1  0
  9 33  1  0
 10 34  1  0
 11 35  1  0
 17 36  1  0
 17 37  1  0
 21 38  1  0
 21 39  1  0
 22 40  1  0
 23 41  1  0
 23 42  1  0
 24 43  1  0
 24 44  1  0
 25 45  1  0
 25 46  1  0
M  CHG  2  13   1  15  -1
M  END
>  <ScrubInfo>  (3) 
{"isomerGroup": 0, "isomerId": 2, "confId": 0, "nr_conformers:": 1, "nr_isomers:": 9}

$$$$
_i3
     RDKit          3D

 46 48  0  0  0  0  0  0  0  0999 V2000
   -1.6721   -0.3268    0.0602 N   0  0  0  0  0  0  0  0  0  0  0  0
   -0.8416   -1.2601   -0.5197 C   0  0  0  0  0  0  0  0  0  0  0  0
   -1.3458   -2.5385   -0.6625 N   0  0  0  0  0  0  0  0  0  0  0  0
    0.3745   -0.8144   -0.9068 C   0  0  0  0  0  0  0  0  0  0  0  0
    1.2529   -1.6694   -1.6518 N   0  0  0  0  0  4  0  0  0  0  0  0
    1.4691   -2.8079   -1.2097 O   0  0  0  0  0  0  0  0  0  0  0  0
    1.6965   -1.2356   -2.7238 O   0  0  0  0  0  1  0  0  0  0  0  0
    0.7157    0.6254   -0.6795 C   0  0  0  0  0  0  0  0  0  0  0  0
    1.9593    1.1766   -0.9423 N   0  0  0  0  0  0  0  0  0  0  0  0
    3.1524    0.6643   -0.3758 C   0  0  0  0  0  0  0  0  0  0  0  0
    4.3604    0.8968   -1.0426 C   0  0  0  0  0  0  0  0  0  0  0  0
    5.5774    0.4644   -0.5024 C   0  0  0  0  0  0  0  0  0  0  0  0
    5.6031   -0.1859    0.7298 C   0  0  0  0  0  0  0  0  0  0  0  0
    6.7157   -0.6553    1.3704 O   0  0  0  0  0  0  0  0  0  0  0  0
    7.9535   -0.5312    0.6814 C   0  0  0  0  0  0  0  0  0  0  0  0
    4.4045   -0.3867    1.4168 C   0  0  0  0  0  0  0  0  0  0  0  0
    3.1886    0.0431    0.8765 C   0  0  0  0  0  0  0  0  0  0  0  0
   -0.1634    1.4810   -0.2099 N   0  0  0  0  0  0  0  0  0  0  0  0
   -1.4039    1.0108    0.1456 C   0  0  0  0  0  0  0  0  0  0  0  0
   -2.1978    1.9360    0.5457 N   0  0  0  0  0  0  0  0  0  0  0  0
   -3.5361    1.6108    1.0508 C   0  0  0  0  0  0  0  0  0  0  0  0
   -4.4848    1.1378   -0.0656 C   0  0  0  0  0  0  0  0  0  0  0  0
   -5.9524    1.3771    0.2672 C   0  0  0  0  0  0  0  0  0  0  0  0
   -6.3501    0.1032    0.9674 C   0  0  0  0  0  0  0  0  0  0  0  0
   -5.5709   -0.9291    0.1878 C   0  0  0  0  0  0  0  0  0  0  0  0
   -4.3404   -0.3023   -0.2104 O   0  0  0  0  0  0  0  0  0  0  0  0
   -2.6407   -0.6098    0.1779 H   0  0  0  0  0  0  0  0  0  0  0  0
   -2.3301   -2.5653   -0.9179 H   0  0  0  0  0  0  0  0  0  0  0  0
   -0.7749   -3.1820   -1.2133 H   0  0  0  0  0  0  0  0  0  0  0  0
    1.9219    2.1786   -0.7516 H   0  0  0  0  0  0  0  0  0  0  0  0
    4.3581    1.4004   -2.0073 H   0  0  0  0  0  0  0  0  0  0  0  0
    6.4821    0.6538   -1.0701 H   0  0  0  0  0  0  0  0  0  0  0  0
    7.9347   -1.0762   -0.2682 H   0  0  0  0  0  0  0  0  0  0  0  0
    8.2152    0.5211    0.5290 H   0  0  0  0  0  0  0  0  0  0  0  0
    8.7308   -0.9799    1.3074 H   0  0  0  0  0  0  0  0  0  0  0  0
    4.4180   -0.8772    2.3874 H   0  0  0  0  0  0  0  0  0  0  0  0
    2.2838   -0.1034    1.4607 H   0  0  0  0  0  0  0  0  0  0  0  0
   -3.9243    2.5337    1.4960 H   0  0  0  0  0  0  0  0  0  0  0  0
   -3.4635    0.8725    1.8590 H   0  0  0  0  0  0  0  0  0  0  0  0
   -4.2222    1.6105   -1.0185 H   0  0  0  0  0  0  0  0  0  0  0  0
   -6.5257    1.4696   -0.6638 H   0  0  0  0  0  0  0  0  0  0  0  0
   -6.1364    2.2775    0.8597 H   0  0  0  0  0  0  0  0  0  0  0  0
   -6.0091    0.1270    2.0089 H   0  0  0  0  0  0  0  0  0  0  0  0
   -7.4272   -0.0825    0.9624 H   0  0  0  0  0  0  0  0  0  0  0  0
   -6.1030   -1.2270   -0.7219 H   0  0  0  0  0  0  0  0  0  0  0  0
   -5.3520   -1.8253    0.7749 H   0  0  0  0  0  0  0  0  0  0  0  0
  1  2  1  0
  2  3  1  0
  2  4  2  0
  4  5  1  0
  5  6  2  0
  5  7  1  0
  4  8  1  0
  8  9  1  0
  9 10  1  0
 10 11  2  0
 11 12  1  0
 12 13  2  0
 13 14  1  0
 14 15  1  0
 13 16  1  0
 16 17  2  0
  8 18  2  0
 18 19  1  0
 19 20  2  3
 20 21  1  0
 21 22  1  0
 22 23  1  0
 23 24  1  0
 24 25  1  0
 25 26  1  0
 19  1  1  0
 26 22  1  0
 17 10  1  0
  1 27  1  0
  3 28  1  0
  3 29  1  0
  9 30  1  0
 11 31  1  0
 12 32  1  0
 15 33  1  0
 15 34  1  0
 15 35  1  0
 16 36  1  0
 17 37  1  0
 21 38  1  0
 21 39  1  0
 22 40  1  0
 23 41  1  0
 23 42  1  0
 24 43  1  0
 24 44  1  0
 25 45  1  0
 25 46  1  0
M  CHG  2   5   1   7  -1
M  END
>  <ScrubInfo>  (4) 
{"isomerGroup": 0, "isomerId": 3, "confId": 0, "nr_conformers:": 1, "nr_isomers:": 9}

$$$$
_i4
     RDKit          3D

 46 48  0  0  0  0  0  0  0  0999 V2000
    1.7289   -1.9663    1.1414 N   0  0  0  0  0  0  0  0  0  0  0  0
    1.6336   -1.3778   -0.0821 C   0  0  0  0  0  0  0  0  0  0  0  0
    2.7825   -0.8360   -0.5732 N   0  0  0  0  0  0  0  0  0  0  0  0
    3.5710    0.1331    0.1906 C   0  0  0  0  0  0  0  0  0  0  0  0
    4.6592    0.7362   -0.7159 C   0  0  0  0  0  0  0  0  0  0  0  0
    5.5006    1.7888   -0.0092 C   0  0  0  0  0  0  0  0  0  0  0  0
    4.7894    3.0741   -0.3529 C   0  0  0  0  0  0  0  0  0  0  0  0
    4.3159    2.8019   -1.7624 C   0  0  0  0  0  0  0  0  0  0  0  0
    4.0133    1.4014   -1.8251 O   0  0  0  0  0  0  0  0  0  0  0  0
    0.5342   -1.3408   -0.7789 N   0  0  0  0  0  0  0  0  0  0  0  0
   -0.6252   -1.9049   -0.2303 C   0  0  0  0  0  0  0  0  0  0  0  0
   -1.7617   -1.8140   -1.0345 N   0  0  0  0  0  0  0  0  0  0  0  0
   -2.8973   -1.0086   -0.7574 C   0  0  0  0  0  0  0  0  0  0  0  0
   -2.9866   -0.1276    0.3253 C   0  0  0  0  0  0  0  0  0  0  0  0
   -4.1426    0.6364    0.5407 C   0  0  0  0  0  0  0  0  0  0  0  0
   -5.2274    0.5327   -0.3278 C   0  0  0  0  0  0  0  0  0  0  0  0
   -6.4057    1.2193   -0.2317 O   0  0  0  0  0  0  0  0  0  0  0  0
   -6.5810    2.0309    0.9227 C   0  0  0  0  0  0  0  0  0  0  0  0
   -5.1434   -0.3376   -1.4140 C   0  0  0  0  0  0  0  0  0  0  0  0
   -3.9924   -1.1019   -1.6256 C   0  0  0  0  0  0  0  0  0  0  0  0
   -0.5983   -2.5389    0.9693 C   0  0  0  0  0  0  0  0  0  0  0  0
   -1.7590   -3.1960    1.4730 N   0  0  0  0  0  4  0  0  0  0  0  0
   -2.3746   -2.6288    2.3886 O   0  0  0  0  0  0  0  0  0  0  0  0
   -2.0585   -4.2910    0.9734 O   0  0  0  0  0  1  0  0  0  0  0  0
    0.6726   -2.6141    1.7235 C   0  0  0  0  0  0  0  0  0  0  0  0
    0.7980   -3.2530    2.8432 N   0  0  0  0  0  0  0  0  0  0  0  0
    2.6564   -2.1330    1.4945 H   0  0  0  0  0  0  0  0  0  0  0  0
    2.5972   -0.4426   -1.5017 H   0  0  0  0  0  0  0  0  0  0  0  0
    2.9004    0.9218    0.5514 H   0  0  0  0  0  0  0  0  0  0  0  0
    4.0341   -0.3549    1.0547 H   0  0  0  0  0  0  0  0  0  0  0  0
    5.2897   -0.0647   -1.1186 H   0  0  0  0  0  0  0  0  0  0  0  0
    6.5065    1.8055   -0.4467 H   0  0  0  0  0  0  0  0  0  0  0  0
    5.6078    1.6225    1.0664 H   0  0  0  0  0  0  0  0  0  0  0  0
    3.9295    3.2137    0.3124 H   0  0  0  0  0  0  0  0  0  0  0  0
    5.4258    3.9599   -0.2804 H   0  0  0  0  0  0  0  0  0  0  0  0
    5.1050    3.0080   -2.4935 H   0  0  0  0  0  0  0  0  0  0  0  0
    3.4294    3.3832   -2.0298 H   0  0  0  0  0  0  0  0  0  0  0  0
   -1.4459   -1.5811   -1.9781 H   0  0  0  0  0  0  0  0  0  0  0  0
   -2.1626   -0.0080    1.0223 H   0  0  0  0  0  0  0  0  0  0  0  0
   -4.1581    1.3002    1.3984 H   0  0  0  0  0  0  0  0  0  0  0  0
   -5.8608    2.8555    0.9365 H   0  0  0  0  0  0  0  0  0  0  0  0
   -7.5838    2.4663    0.8759 H   0  0  0  0  0  0  0  0  0  0  0  0
   -6.5191    1.4355    1.8398 H   0  0  0  0  0  0  0  0  0  0  0  0
   -5.9842   -0.4312   -2.0966 H   0  0  0  0  0  0  0  0  0  0  0  0
   -3.9631   -1.7871   -2.4694 H   0  0  0  0  0  0  0  0  0  0  0  0
    1.7503   -3.1870    3.2075 H   0  0  0  0  0  0  0  0  0  0  0  0
  1  2  1  0
  2  3  1  0
  3  4  1  0
  4  5  1  0
  5  6  1  0
  6  7  1  0
  7  8  1  0
  8  9  1  0
  2 10  2  0
 10 11  1  0
 11 12  1  0
 12 13  1  0
 13 14  2  0
 14 15  1  0
 15 16  2  0
 16 17  1  0
 17 18  1  0
 16 19  1  0
 19 20  2  0
 11 21  2  0
 21 22  1  0
 22 23  2  0
 22 24  1  0
 21 25  1  0
 25 26  2  3
 25  1  1  0
  9  5  1  0
 20 13  1  0
  1 27  1  0
  3 28  1  0
  4 29  1  0
  4 30  1  0
  5 31  1  0
  6 32  1  0
  6 33  1  0
  7 34  1  0
  7 35  1  0
  8 36  1  0
  8 37  1  0
 12 38  1  0
 14 39  1  0
 15 40  1  0
 18 41  1  0
 18 42  1  0
 18 43  1  0
 19 44  1  0
 20 45  1  0
 26 46  1  0
M  CHG  2  22   1  24  -1
M  END
>  <ScrubInfo>  (5) 
{"isomerGroup": 0, "isomerId": 4, "confId": 0, "nr_conformers:": 1, "nr_isomers:": 9}

$$$$
_i5
     RDKit          3D

 46 48  0  0  0  0  0  0  0  0999 V2000
   -0.4591    0.0966   -0.3946 N   0  0  0  0  0  0  0  0  0  0  0  0
   -1.3029    1.1478   -0.2049 C   0  0  0  0  0  0  0  0  0  0  0  0
   -2.3612    0.9012    0.6146 N   0  0  0  0  0  0  0  0  0  0  0  0
   -3.2613   -0.2310    0.3925 C   0  0  0  0  0  0  0  0  0  0  0  0
   -4.4588   -0.1337    1.3550 C   0  0  0  0  0  0  0  0  0  0  0  0
   -5.4569   -1.2675    1.1700 C   0  0  0  0  0  0  0  0  0  0  0  0
   -6.4434   -0.6887    0.1862 C   0  0  0  0  0  0  0  0  0  0  0  0
   -6.4878    0.7632    0.6051 C   0  0  0  0  0  0  0  0  0  0  0  0
   -5.1748    1.0908    1.0793 O   0  0  0  0  0  0  0  0  0  0  0  0
   -1.1394    2.3188   -0.7311 N   0  0  0  0  0  0  0  0  0  0  0  0
   -0.0369    2.5402   -1.5284 C   0  0  0  0  0  0  0  0  0  0  0  0
    0.0525    3.7381   -1.9958 N   0  0  0  0  0  0  0  0  0  0  0  0
    0.9030    1.4113   -1.7348 C   0  0  0  0  0  0  0  0  0  0  0  0
    2.0025    1.5916   -2.6307 N   0  0  0  0  0  4  0  0  0  0  0  0
    2.1247    0.7992   -3.5754 O   0  0  0  0  0  0  0  0  0  0  0  0
    2.7264    2.5784   -2.4338 O   0  0  0  0  0  1  0  0  0  0  0  0
    0.7092    0.2201   -1.1254 C   0  0  0  0  0  0  0  0  0  0  0  0
    1.5579   -0.8738   -1.1964 N   0  0  0  0  0  0  0  0  0  0  0  0
    2.7947   -0.9935   -0.5155 C   0  0  0  0  0  0  0  0  0  0  0  0
    3.5220   -2.1811   -0.6695 C   0  0  0  0  0  0  0  0  0  0  0  0
    4.7719   -2.3429   -0.0642 C   0  0  0  0  0  0  0  0  0  0  0  0
    5.3342   -1.3148    0.6908 C   0  0  0  0  0  0  0  0  0  0  0  0
    6.5581   -1.6002    1.2276 O   0  0  0  0  0  0  0  0  0  0  0  0
    7.2064   -0.5544    1.9410 C   0  0  0  0  0  0  0  0  0  0  0  0
    4.6326   -0.1200    0.8317 C   0  0  0  0  0  0  0  0  0  0  0  0
    3.3777    0.0411    0.2260 C   0  0  0  0  0  0  0  0  0  0  0  0
   -0.4586   -0.6215    0.3167 H   0  0  0  0  0  0  0  0  0  0  0  0
   -2.9223    1.7557    0.6947 H   0  0  0  0  0  0  0  0  0  0  0  0
   -3.6081   -0.2025   -0.6471 H   0  0  0  0  0  0  0  0  0  0  0  0
   -2.7286   -1.1737    0.5575 H   0  0  0  0  0  0  0  0  0  0  0  0
   -4.0986   -0.0934    2.3893 H   0  0  0  0  0  0  0  0  0  0  0  0
   -5.9684   -1.4619    2.1208 H   0  0  0  0  0  0  0  0  0  0  0  0
   -5.0057   -2.2060    0.8359 H   0  0  0  0  0  0  0  0  0  0  0  0
   -7.4242   -1.1705    0.2143 H   0  0  0  0  0  0  0  0  0  0  0  0
   -6.0484   -0.7745   -0.8326 H   0  0  0  0  0  0  0  0  0  0  0  0
   -6.7609    1.4313   -0.2163 H   0  0  0  0  0  0  0  0  0  0  0  0
   -7.1906    0.9168    1.4310 H   0  0  0  0  0  0  0  0  0  0  0  0
    0.9114    3.8765   -2.5401 H   0  0  0  0  0  0  0  0  0  0  0  0
    1.0591   -1.7605   -1.1760 H   0  0  0  0  0  0  0  0  0  0  0  0
    3.1299   -2.9933   -1.2769 H   0  0  0  0  0  0  0  0  0  0  0  0
    5.3175   -3.2743   -0.1953 H   0  0  0  0  0  0  0  0  0  0  0  0
    6.6345   -0.2716    2.8309 H   0  0  0  0  0  0  0  0  0  0  0  0
    8.1780   -0.9304    2.2756 H   0  0  0  0  0  0  0  0  0  0  0  0
    7.3885    0.3114    1.2956 H   0  0  0  0  0  0  0  0  0  0  0  0
    5.0310    0.7129    1.4021 H   0  0  0  0  0  0  0  0  0  0  0  0
    2.8732    0.9926    0.3666 H   0  0  0  0  0  0  0  0  0  0  0  0
  1  2  1  0
  2  3  1  0
  3  4  1  0
  4  5  1  0
  5  6  1  0
  6  7  1  0
  7  8  1  0
  8  9  1  0
  2 10  2  0
 10 11  1  0
 11 12  2  3
 11 13  1  0
 13 14  1  0
 14 15  2  0
 14 16  1  0
 13 17  2  0
 17 18  1  0
 18 19  1  0
 19 20  2  0
 20 21  1  0
 21 22  2  0
 22 23  1  0
 23 24  1  0
 22 25  1  0
 25 26  2  0
 17  1  1  0
 26 19  1  0
  9  5  1  0
  1 27  1  0
  3 28  1  0
  4 29  1  0
  4 30  1  0
  5 31  1  0
  6 32  1  0
  6 33  1  0
  7 34  1  0
  7 35  1  0
  8 36  1  0
  8 37  1  0
 12 38  1  0
 18 39  1  0
 20 40  1  0
 21 41  1  0
 24 42  1  0
 24 43  1  0
 24 44  1  0
 25 45  1  0
 26 46  1  0
M  CHG  2  14   1  16  -1
M  END
>  <ScrubInfo>  (6) 
{"isomerGroup": 0, "isomerId": 5, "confId": 0, "nr_conformers:": 1, "nr_isomers:": 9}

$$$$
_i6
     RDKit          3D

 46 48  0  0  0  0  0  0  0  0999 V2000
   -1.7554   -0.6793   -0.0598 N   0  0  0  0  0  0  0  0  0  0  0  0
   -1.7444    0.0181    1.1053 C   0  0  0  0  0  0  0  0  0  0  0  0
   -2.9428    0.4651    1.5725 N   0  0  0  0  0  0  0  0  0  0  0  0
   -4.1903   -0.2894    1.4989 C   0  0  0  0  0  0  0  0  0  0  0  0
   -5.0146    0.0265    0.2375 C   0  0  0  0  0  0  0  0  0  0  0  0
   -5.3452    1.5042    0.0492 C   0  0  0  0  0  0  0  0  0  0  0  0
   -4.4524    1.9252   -1.0917 C   0  0  0  0  0  0  0  0  0  0  0  0
   -4.3671    0.6584   -1.9080 C   0  0  0  0  0  0  0  0  0  0  0  0
   -4.3218   -0.4167   -0.9554 O   0  0  0  0  0  0  0  0  0  0  0  0
   -0.6659    0.2711    1.7799 N   0  0  0  0  0  0  0  0  0  0  0  0
    0.5528   -0.1433    1.2571 C   0  0  0  0  0  0  0  0  0  0  0  0
    1.5516    0.4963    1.7739 N   0  0  0  0  0  0  0  0  0  0  0  0
    2.8614    0.3435    1.3196 C   0  0  0  0  0  0  0  0  0  0  0  0
    3.7835   -0.3779    2.0758 C   0  0  0  0  0  0  0  0  0  0  0  0
    5.1043   -0.5091    1.6398 C   0  0  0  0  0  0  0  0  0  0  0  0
    5.5252    0.0950    0.4529 C   0  0  0  0  0  0  0  0  0  0  0  0
    6.8403   -0.1117    0.1403 O   0  0  0  0  0  0  0  0  0  0  0  0
    7.2974    0.4212   -1.0958 C   0  0  0  0  0  0  0  0  0  0  0  0
    4.6131    0.8457   -0.2892 C   0  0  0  0  0  0  0  0  0  0  0  0
    3.2902    0.9759    0.1495 C   0  0  0  0  0  0  0  0  0  0  0  0
    0.4851   -1.1823    0.1897 C   0  0  0  0  0  0  0  0  0  0  0  0
    1.6126   -2.0003   -0.1155 N   0  0  0  0  0  4  0  0  0  0  0  0
    2.0488   -2.7267    0.7873 O   0  0  0  0  0  0  0  0  0  0  0  0
    2.0375   -1.9743   -1.2828 O   0  0  0  0  0  1  0  0  0  0  0  0
   -0.6650   -1.3970   -0.4914 C   0  0  0  0  0  0  0  0  0  0  0  0
   -0.8561   -2.2787   -1.5417 N   0  0  0  0  0  0  0  0  0  0  0  0
   -2.6516   -0.8935   -0.4892 H   0  0  0  0  0  0  0  0  0  0  0  0
   -2.8040    0.9088    2.4784 H   0  0  0  0  0  0  0  0  0  0  0  0
   -4.7914   -0.0433    2.3820 H   0  0  0  0  0  0  0  0  0  0  0  0
   -3.9728   -1.3631    1.5459 H   0  0  0  0  0  0  0  0  0  0  0  0
   -5.9458   -0.5498    0.2964 H   0  0  0  0  0  0  0  0  0  0  0  0
   -5.2130    2.1101    0.9503 H   0  0  0  0  0  0  0  0  0  0  0  0
   -6.3945    1.6034   -0.2556 H   0  0  0  0  0  0  0  0  0  0  0  0
   -4.8417    2.7740   -1.6597 H   0  0  0  0  0  0  0  0  0  0  0  0
   -3.4613    2.1933   -0.7090 H   0  0  0  0  0  0  0  0  0  0  0  0
   -3.4786    0.6230   -2.5440 H   0  0  0  0  0  0  0  0  0  0  0  0
   -5.2562    0.5218   -2.5333 H   0  0  0  0  0  0  0  0  0  0  0  0
    3.4709   -0.8498    3.0033 H   0  0  0  0  0  0  0  0  0  0  0  0
    5.8091   -1.0883    2.2309 H   0  0  0  0  0  0  0  0  0  0  0  0
    8.3477    0.1378   -1.2141 H   0  0  0  0  0  0  0  0  0  0  0  0
    6.7416   -0.0013   -1.9396 H   0  0  0  0  0  0  0  0  0  0  0  0
    7.2461    1.5150   -1.0958 H   0  0  0  0  0  0  0  0  0  0  0  0
    4.8978    1.3491   -1.2065 H   0  0  0  0  0  0  0  0  0  0  0  0
    2.5940    1.5832   -0.4225 H   0  0  0  0  0  0  0  0  0  0  0  0
    0.0040   -2.5169   -2.0442 H   0  0  0  0  0  0  0  0  0  0  0  0
   -1.5830   -1.9729   -2.1843 H   0  0  0  0  0  0  0  0  0  0  0  0
  1  2  1  0
  2  3  1  0
  3  4  1  0
  4  5  1  0
  5  6  1  0
  6  7  1  0
  7  8  1  0
  8  9  1  0
  2 10  2  0
 10 11  1  0
 11 12  2  3
 12 13  1  0
 13 14  2  0
 14 15  1  0
 15 16  2  0
 16 17  1  0
 17 18  1  0
 16 19  1  0
 19 20  2  0
 11 21  1  0
 21 22  1  0
 22 23  2  0
 22 24  1  0
 21 25  2  0
 25 26  1  0
 25  1  1  0
  9  5  1  0
 20 13  1  0
  1 27  1  0
  3 28  1  0
  4 29  1  0
  4 30  1  0
  5 31  1  0
  6 32  1  0
  6 33  1  0
  7 34  1  0
  7 35  1  0
  8 36  1  0
  8 37  1  0
 14 38  1  0
 15 39  1  0
 18 40  1  0
 18 41  1  0
 18 42  1  0
 19 43  1  0
 20 44  1  0
 26 45  1  0
 26 46  1  0
M  CHG  2  22   1  24  -1
M  END
>  <ScrubInfo>  (7) 
{"isomerGroup": 0, "isomerId": 6, "confId": 0, "nr_conformers:": 1, "nr_isomers:": 9}

$$$$
_i7
     RDKit          3D

 46 48  0  0  0  0  0  0  0  0999 V2000
   -1.2643   -1.1223   -0.7104 N   0  0  0  0  0  0  0  0  0  0  0  0
   -0.0458   -1.7935   -0.7512 C   0  0  0  0  0  0  0  0  0  0  0  0
   -0.0520   -3.0187   -1.4040 N   0  0  0  0  0  0  0  0  0  0  0  0
    1.0335   -1.2247   -0.1490 C   0  0  0  0  0  0  0  0  0  0  0  0
    2.2377   -1.9840   -0.0699 N   0  0  0  0  0  4  0  0  0  0  0  0
    2.8309   -2.2122   -1.1362 O   0  0  0  0  0  0  0  0  0  0  0  0
    2.5608   -2.4241    1.0407 O   0  0  0  0  0  1  0  0  0  0  0  0
    0.8739    0.1201    0.4891 C   0  0  0  0  0  0  0  0  0  0  0  0
    1.7557    0.9421    0.9897 N   0  0  0  0  0  0  0  0  0  0  0  0
    3.1297    0.7016    0.9609 C   0  0  0  0  0  0  0  0  0  0  0  0
    3.8727    0.9494   -0.1961 C   0  0  0  0  0  0  0  0  0  0  0  0
    5.2574    0.7441   -0.2129 C   0  0  0  0  0  0  0  0  0  0  0  0
    5.9136    0.3081    0.9382 C   0  0  0  0  0  0  0  0  0  0  0  0
    7.2548    0.0708    1.0589 O   0  0  0  0  0  0  0  0  0  0  0  0
    8.0365    0.1904   -0.1226 C   0  0  0  0  0  0  0  0  0  0  0  0
    5.1747    0.0937    2.1038 C   0  0  0  0  0  0  0  0  0  0  0  0
    3.7926    0.2977    2.1185 C   0  0  0  0  0  0  0  0  0  0  0  0
   -0.4204    0.5972    0.5191 N   0  0  0  0  0  0  0  0  0  0  0  0
   -1.5373    0.0527   -0.0462 C   0  0  0  0  0  0  0  0  0  0  0  0
   -2.6692    0.6540    0.0819 N   0  0  0  0  0  0  0  0  0  0  0  0
   -3.8430    0.0452   -0.5438 C   0  0  0  0  0  0  0  0  0  0  0  0
   -5.0635    0.9455   -0.3512 C   0  0  0  0  0  0  0  0  0  0  0  0
   -5.4819    1.1219    1.1001 C   0  0  0  0  0  0  0  0  0  0  0  0
   -6.9443    1.4582    0.9519 C   0  0  0  0  0  0  0  0  0  0  0  0
   -7.3593    0.5588   -0.1928 C   0  0  0  0  0  0  0  0  0  0  0  0
   -6.2038    0.3733   -1.0247 O   0  0  0  0  0  0  0  0  0  0  0  0
   -2.0482   -1.6592   -1.0547 H   0  0  0  0  0  0  0  0  0  0  0  0
   -0.6782   -3.0365   -2.2057 H   0  0  0  0  0  0  0  0  0  0  0  0
    0.8768   -3.3505   -1.6811 H   0  0  0  0  0  0  0  0  0  0  0  0
    3.3757    1.3098   -1.0925 H   0  0  0  0  0  0  0  0  0  0  0  0
    5.7909    0.9411   -1.1364 H   0  0  0  0  0  0  0  0  0  0  0  0
    8.0378    1.2217   -0.4905 H   0  0  0  0  0  0  0  0  0  0  0  0
    7.6953   -0.5056   -0.8962 H   0  0  0  0  0  0  0  0  0  0  0  0
    9.0678   -0.0734    0.1308 H   0  0  0  0  0  0  0  0  0  0  0  0
    5.6780   -0.2377    3.0086 H   0  0  0  0  0  0  0  0  0  0  0  0
    3.2329    0.1297    3.0341 H   0  0  0  0  0  0  0  0  0  0  0  0
   -0.5471    1.4935    0.9705 H   0  0  0  0  0  0  0  0  0  0  0  0
   -3.6815   -0.0971   -1.6200 H   0  0  0  0  0  0  0  0  0  0  0  0
   -4.0467   -0.9438   -0.1139 H   0  0  0  0  0  0  0  0  0  0  0  0
   -4.8791    1.9263   -0.8079 H   0  0  0  0  0  0  0  0  0  0  0  0
   -4.9107    1.8972    1.6182 H   0  0  0  0  0  0  0  0  0  0  0  0
   -5.3747    0.1833    1.6574 H   0  0  0  0  0  0  0  0  0  0  0  0
   -7.0565    2.5095    0.6615 H   0  0  0  0  0  0  0  0  0  0  0  0
   -7.5292    1.2904    1.8600 H   0  0  0  0  0  0  0  0  0  0  0  0
   -8.1750    0.9831   -0.7850 H   0  0  0  0  0  0  0  0  0  0  0  0
   -7.6680   -0.4271    0.1703 H   0  0  0  0  0  0  0  0  0  0  0  0
  1  2  1  0
  2  3  1  0
  2  4  2  0
  4  5  1  0
  5  6  2  0
  5  7  1  0
  4  8  1  0
  8  9  2  3
  9 10  1  0
 10 11  2  0
 11 12  1  0
 12 13  2  0
 13 14  1  0
 14 15  1  0
 13 16  1  0
 16 17  2  0
  8 18  1  0
 18 19  1  0
 19 20  2  3
 20 21  1  0
 21 22  1  0
 22 23  1  0
 23 24  1  0
 24 25  1  0
 25 26  1  0
 19  1  1  0
 26 22  1  0
 17 10  1  0
  1 27  1  0
  3 28  1  0
  3 29  1  0
 11 30  1  0
 12 31  1  0
 15 32  1  0
 15 33  1  0
 15 34  1  0
 16 35  1  0
 17 36  1  0
 18 37  1  0
 21 38  1  0
 21 39  1  0
 22 40  1  0
 23 41  1  0
 23 42  1  0
 24 43  1  0
 24 44  1  0
 25 45  1  0
 25 46  1  0
M  CHG  2   5   1   7  -1
M  END
>  <ScrubInfo>  (8) 
{"isomerGroup": 0, "isomerId": 7, "confId": 0, "nr_conformers:": 1, "nr_isomers:": 9}

$$$$
_i8
     RDKit          3D

 46 48  0  0  0  0  0  0  0  0999 V2000
   -1.6545    0.4474   -1.2220 N   0  0  0  0  0  0  0  0  0  0  0  0
   -1.0383   -0.0564   -0.1060 C   0  0  0  0  0  0  0  0  0  0  0  0
   -1.4636   -0.9524    0.7143 N   0  0  0  0  0  0  0  0  0  0  0  0
   -2.7349   -1.6489    0.4645 C   0  0  0  0  0  0  0  0  0  0  0  0
   -3.9565   -0.7237    0.6057 C   0  0  0  0  0  0  0  0  0  0  0  0
   -5.2363   -1.4787    0.9446 C   0  0  0  0  0  0  0  0  0  0  0  0
   -5.8279   -1.7696   -0.4107 C   0  0  0  0  0  0  0  0  0  0  0  0
   -5.4770   -0.5132   -1.1710 C   0  0  0  0  0  0  0  0  0  0  0  0
   -4.1939   -0.0886   -0.6818 O   0  0  0  0  0  0  0  0  0  0  0  0
    0.1862    0.5214    0.1154 N   0  0  0  0  0  0  0  0  0  0  0  0
    0.8437    1.4826   -0.6573 C   0  0  0  0  0  0  0  0  0  0  0  0
    2.1013    1.9257   -0.2548 N   0  0  0  0  0  0  0  0  0  0  0  0
    3.1655    1.1876    0.2986 C   0  0  0  0  0  0  0  0  0  0  0  0
    4.1984    1.8866    0.9358 C   0  0  0  0  0  0  0  0  0  0  0  0
    5.2570    1.2082    1.5480 C   0  0  0  0  0  0  0  0  0  0  0  0
    5.3052   -0.1851    1.5441 C   0  0  0  0  0  0  0  0  0  0  0  0
    6.3910   -0.7237    2.1754 O   0  0  0  0  0  0  0  0  0  0  0  0
    6.4909   -2.1422    2.1858 C   0  0  0  0  0  0  0  0  0  0  0  0
    4.2807   -0.8934    0.9210 C   0  0  0  0  0  0  0  0  0  0  0  0
    3.2190   -0.2108    0.3094 C   0  0  0  0  0  0  0  0  0  0  0  0
    0.1807    1.9704   -1.7385 C   0  0  0  0  0  0  0  0  0  0  0  0
    0.8080    2.9282   -2.5990 N   0  0  0  0  0  4  0  0  0  0  0  0
    1.3204    3.9252   -2.0622 O   0  0  0  0  0  0  0  0  0  0  0  0
    0.8711    2.6667   -3.8072 O   0  0  0  0  0  1  0  0  0  0  0  0
   -1.1878    1.4628   -2.0237 C   0  0  0  0  0  0  0  0  0  0  0  0
   -1.9354    1.9701   -2.9551 N   0  0  0  0  0  0  0  0  0  0  0  0
   -2.6310    0.1851   -1.3291 H   0  0  0  0  0  0  0  0  0  0  0  0
   -2.7921   -2.4494    1.2105 H   0  0  0  0  0  0  0  0  0  0  0  0
   -2.7059   -2.1293   -0.5213 H   0  0  0  0  0  0  0  0  0  0  0  0
   -3.7614    0.0585    1.3477 H   0  0  0  0  0  0  0  0  0  0  0  0
   -5.0809   -2.3729    1.5545 H   0  0  0  0  0  0  0  0  0  0  0  0
   -5.9131   -0.8152    1.4975 H   0  0  0  0  0  0  0  0  0  0  0  0
   -6.9025   -1.9678   -0.3869 H   0  0  0  0  0  0  0  0  0  0  0  0
   -5.3260   -2.6350   -0.8586 H   0  0  0  0  0  0  0  0  0  0  0  0
   -5.4223   -0.6735   -2.2512 H   0  0  0  0  0  0  0  0  0  0  0  0
   -6.1945    0.2896   -0.9702 H   0  0  0  0  0  0  0  0  0  0  0  0
    0.6641    0.2488    0.9664 H   0  0  0  0  0  0  0  0  0  0  0  0
    2.4053    2.8133   -0.6653 H   0  0  0  0  0  0  0  0  0  0  0  0
    4.1856    2.9736    0.9716 H   0  0  0  0  0  0  0  0  0  0  0  0
    6.0478    1.7735    2.0352 H   0  0  0  0  0  0  0  0  0  0  0  0
    5.6500   -2.5930    2.7232 H   0  0  0  0  0  0  0  0  0  0  0  0
    6.5698   -2.5400    1.1686 H   0  0  0  0  0  0  0  0  0  0  0  0
    7.4082   -2.4088    2.7195 H   0  0  0  0  0  0  0  0  0  0  0  0
    4.2740   -1.9778    0.8861 H   0  0  0  0  0  0  0  0  0  0  0  0
    2.4550   -0.8025   -0.1881 H   0  0  0  0  0  0  0  0  0  0  0  0
   -2.8431    1.4968   -2.9833 H   0  0  0  0  0  0  0  0  0  0  0  0
  1  2  1  0
  2  3  2  3
  3  4  1  0
  4  5  1  0
  5  6  1  0
  6  7  1  0
  7  8  1  0
  8  9  1  0
  2 10  1  0
 10 11  1  0
 11 12  1  0
 12 13  1  0
 13 14  2  0
 14 15  1  0
 15 16  2  0
 16 17  1  0
 17 18  1  0
 16 19  1  0
 19 20  2  0
 11 21  2  0
 21 22  1  0
 22 23  2  0
 22 24  1  0
 21 25  1  0
 25 26  2  3
 25  1  1  0
  9  5  1  0
 20 13  1  0
  1 27  1  0
  4 28  1  0
  4 29  1  0
  5 30  1  0
  6 31  1  0
  6 32  1  0
  7 33  1  0
  7 34  1  0
  8 35  1  0
  8 36  1  0
 10 37  1  0
 12 38  1  0
 14 39  1  0
 15 40  1  0
 18 41  1  0
 18 42  1  0
 18 43  1  0
 19 44  1  0
 20 45  1  0
 26 46  1  0
M  CHG  2  22   1  24  -1
M  END
>  <ScrubInfo>  (9) 
{"isomerGroup": 0, "isomerId": 8, "confId": 0, "nr_conformers:": 1, "nr_isomers:": 9}

$$$$
