_i0
     RDKit          3D

 46 48  0  0  0  0  0  0  0  0999 V2000
   -1.6694   -2.9524   -0.5723 C   0  0  0  0  0  0  0  0  0  0  0  0
   -1.7273   -2.3402    0.7889 N   0  0  0  0  0  4  0  0  0  0  0  0
   -2.9293   -1.5466    1.2044 C   0  0  0  0  0  0  0  0  0  0  0  0
   -1.7788   -1.9391   -1.7205 C   0  0  0  0  0  0  0  0  0  0  0  0
   -1.4230   -0.5250   -1.3397 C   0  0  0  0  0  0  0  0  0  0  0  0
   -2.2505    0.1869   -0.4775 C   0  0  0  0  0  0  0  0  0  0  0  0
   -0.1968    0.0609   -1.6197 C   0  0  0  0  0  0  0  0  0  0  0  0
   -1.9567    1.4168   -0.0338 N   0  0  0  0  0  0  0  0  0  0  0  0
   -3.4093   -0.5102    0.1818 C   0  0  0  0  0  0  0  0  0  0  0  0
    0.7874   -0.7303   -2.2195 N   0  0  0  0  0  0  0  0  0  0  0  0
    0.1146    1.2954   -1.2067 N   0  0  0  0  0  0  0  0  0  0  0  0
   -0.7990    1.9424   -0.4622 C   0  0  0  0  0  0  0  0  0  0  0  0
    2.1871   -0.3448   -2.0356 C   0  0  0  0  0  0  0  0  0  0  0  0
   -0.4450    3.2811   -0.0195 C   0  0  0  0  0  0  0  0  0  0  0  0
    2.6524   -0.2472   -0.5855 C   0  0  0  0  0  0  0  0  0  0  0  0
    0.5896    4.1461   -0.3264 C   0  0  0  0  0  0  0  0  0  0  0  0
   -1.2648    3.8678    0.9078 O   0  0  0  0  0  0  0  0  0  0  0  0
    2.1970   -1.6751    0.3903 S   0  0  0  0  0  6  0  0  0  0  0  0
    0.3856    5.3174    0.4430 C   0  0  0  0  0  0  0  0  0  0  0  0
   -0.7564    5.0981    1.1756 C   0  0  0  0  0  0  0  0  0  0  0  0
    3.1710   -1.5271    1.7410 N   0  0  0  0  0  0  0  0  0  0  0  0
    0.8215   -1.5639    0.8542 O   0  0  0  0  0  0  0  0  0  0  0  0
    2.6411   -2.8751   -0.2812 O   0  0  0  0  0  0  0  0  0  0  0  0
    3.0597   -0.3464    2.5941 C   0  0  0  0  0  0  0  0  0  0  0  0
   -0.7048   -3.4693   -0.6207 H   0  0  0  0  0  0  0  0  0  0  0  0
   -2.4608   -3.7068   -0.6294 H   0  0  0  0  0  0  0  0  0  0  0  0
   -0.8572   -1.7626    0.8927 H   0  0  0  0  0  0  0  0  0  0  0  0
   -1.5585   -3.0788    1.4841 H   0  0  0  0  0  0  0  0  0  0  0  0
   -3.7253   -2.2644    1.4279 H   0  0  0  0  0  0  0  0  0  0  0  0
   -2.6395   -1.0548    2.1394 H   0  0  0  0  0  0  0  0  0  0  0  0
   -1.1829   -2.2922   -2.5703 H   0  0  0  0  0  0  0  0  0  0  0  0
   -2.8050   -1.9452   -2.1105 H   0  0  0  0  0  0  0  0  0  0  0  0
   -4.0497   -0.9795   -0.5734 H   0  0  0  0  0  0  0  0  0  0  0  0
   -4.0477    0.2233    0.6897 H   0  0  0  0  0  0  0  0  0  0  0  0
    0.5543   -0.8785   -3.2020 H   0  0  0  0  0  0  0  0  0  0  0  0
    2.7932   -1.1056   -2.5421 H   0  0  0  0  0  0  0  0  0  0  0  0
    2.3893    0.6000   -2.5550 H   0  0  0  0  0  0  0  0  0  0  0  0
    3.7458   -0.1835   -0.5718 H   0  0  0  0  0  0  0  0  0  0  0  0
    2.2553    0.6342   -0.0763 H   0  0  0  0  0  0  0  0  0  0  0  0
    1.3864    3.9522   -1.0310 H   0  0  0  0  0  0  0  0  0  0  0  0
    0.9905    6.2138    0.4584 H   0  0  0  0  0  0  0  0  0  0  0  0
   -1.3114    5.6876    1.8930 H   0  0  0  0  0  0  0  0  0  0  0  0
    4.1022   -1.9364    1.6376 H   0  0  0  0  0  0  0  0  0  0  0  0
    3.6494    0.4753    2.1797 H   0  0  0  0  0  0  0  0  0  0  0  0
    3.4557   -0.5865    3.5850 H   0  0  0  0  0  0  0  0  0  0  0  0
    2.0200   -0.0318    2.7140 H   0  0  0  0  0  0  0  0  0  0  0  0
  1  2  1  0
  2  3  1  0
  4  1  1  0
  5  4  1  0
  6  5  2  0
  5  7  1  0
  8  6  1  0
  9  6  1  0
 10  7  1  0
  7 11  2  0
 12  8  2  0
  3  9  1  0
 13 10  1  0
 11 12  1  0
 12 14  1  0
 15 13  1  0
 14 16  2  0
 17 14  1  0
 18 15  1  0
 16 19  1  0
 20 17  1  0
 21 18  1  0
 18 22  2  0
 18 23  2  0
 19 20  2  0
 24 21  1  0
  1 25  1  0
  1 26  1  0
  2 27  1  0
  2 28  1  0
  3 29  1  0
  3 30  1  0
  4 31  1  0
  4 32  1  0
  9 33  1  0
  9 34  1  0
 10 35  1  0
 13 36  1  0
 13 37  1  0
 15 38  1  0
 15 39  1  0
 16 40  1  0
 19 41  1  0
 20 42  1  0
 21 43  1  0
 24 44  1  0
 24 45  1  0
 24 46  1  0
M  CHG  1   2   1
M  END
>  <ScrubInfo>  (1) 
{"isomerGroup": 0, "isomerId": 0, "confId": 0, "nr_conformers:": 1, "nr_isomers:": 3}

$$$$
_i1
     RDKit          3D

 46 48  0  0  0  0  0  0  0  0999 V2000
   -0.0302    0.4176    0.5744 N   0  0  0  0  0  0  0  0  0  0  0  0
   -1.1295    1.2148    0.8015 C   0  0  0  0  0  0  0  0  0  0  0  0
   -1.1549    2.2844    1.7881 C   0  0  0  0  0  0  0  0  0  0  0  0
   -0.2067    2.7577    2.6775 C   0  0  0  0  0  0  0  0  0  0  0  0
   -0.8065    3.8238    3.3929 C   0  0  0  0  0  0  0  0  0  0  0  0
   -2.0848    3.9382    2.9056 C   0  0  0  0  0  0  0  0  0  0  0  0
   -2.3081    3.0121    1.9406 O   0  0  0  0  0  0  0  0  0  0  0  0
   -2.2340    1.0199    0.1239 N   0  0  0  0  0  0  0  0  0  0  0  0
   -2.2730    0.0397   -0.8409 C   0  0  0  0  0  0  0  0  0  0  0  0
   -1.2708   -0.8216   -1.1226 C   0  0  0  0  0  0  0  0  0  0  0  0
   -0.0043   -0.6137   -0.3259 C   0  0  0  0  0  0  0  0  0  0  0  0
    0.9645   -1.4293   -0.5799 N   0  0  0  0  0  0  0  0  0  0  0  0
    2.2269   -1.3710    0.1629 C   0  0  0  0  0  0  0  0  0  0  0  0
    3.2201   -0.4474   -0.5254 C   0  0  0  0  0  0  0  0  0  0  0  0
    3.6944    0.9018    0.5415 S   0  0  0  0  0  6  0  0  0  0  0  0
    4.5727    1.7957   -0.1729 O   0  0  0  0  0  0  0  0  0  0  0  0
    2.4873    1.3816    1.1879 O   0  0  0  0  0  0  0  0  0  0  0  0
    4.5817    0.1331    1.7404 N   0  0  0  0  0  0  0  0  0  0  0  0
    6.0016   -0.1262    1.4667 C   0  0  0  0  0  0  0  0  0  0  0  0
   -1.2788   -1.9746   -2.1000 C   0  0  0  0  0  0  0  0  0  0  0  0
   -2.6242   -2.4745   -2.6359 C   0  0  0  0  0  0  0  0  0  0  0  0
   -3.6644   -2.4904   -1.5591 N   0  0  0  0  0  4  0  0  0  0  0  0
   -4.4250   -1.2098   -1.3653 C   0  0  0  0  0  0  0  0  0  0  0  0
   -3.5763    0.0334   -1.6031 C   0  0  0  0  0  0  0  0  0  0  0  0
    0.8346    0.7030    1.0300 H   0  0  0  0  0  0  0  0  0  0  0  0
    0.8020    2.3922    2.8027 H   0  0  0  0  0  0  0  0  0  0  0  0
   -0.3611    4.4352    4.1657 H   0  0  0  0  0  0  0  0  0  0  0  0
   -2.9160    4.5936    3.1275 H   0  0  0  0  0  0  0  0  0  0  0  0
    2.6400   -2.3870    0.1489 H   0  0  0  0  0  0  0  0  0  0  0  0
    2.0594   -1.1495    1.2225 H   0  0  0  0  0  0  0  0  0  0  0  0
    4.1353   -0.9756   -0.8088 H   0  0  0  0  0  0  0  0  0  0  0  0
    2.8025    0.0081   -1.4297 H   0  0  0  0  0  0  0  0  0  0  0  0
    4.3998    0.5413    2.6602 H   0  0  0  0  0  0  0  0  0  0  0  0
    6.3895   -0.7995    2.2367 H   0  0  0  0  0  0  0  0  0  0  0  0
    6.1389   -0.6080    0.4957 H   0  0  0  0  0  0  0  0  0  0  0  0
    6.5737    0.8044    1.5105 H   0  0  0  0  0  0  0  0  0  0  0  0
   -0.8215   -2.8412   -1.6029 H   0  0  0  0  0  0  0  0  0  0  0  0
   -0.6313   -1.7306   -2.9511 H   0  0  0  0  0  0  0  0  0  0  0  0
   -3.0024   -1.8823   -3.4751 H   0  0  0  0  0  0  0  0  0  0  0  0
   -2.5229   -3.5094   -2.9807 H   0  0  0  0  0  0  0  0  0  0  0  0
   -4.3422   -3.2414   -1.7471 H   0  0  0  0  0  0  0  0  0  0  0  0
   -3.2222   -2.7467   -0.6636 H   0  0  0  0  0  0  0  0  0  0  0  0
   -4.8233   -1.2419   -0.3458 H   0  0  0  0  0  0  0  0  0  0  0  0
   -5.2637   -1.2367   -2.0689 H   0  0  0  0  0  0  0  0  0  0  0  0
   -3.3690    0.1657   -2.6726 H   0  0  0  0  0  0  0  0  0  0  0  0
   -4.1781    0.9108   -1.3303 H   0  0  0  0  0  0  0  0  0  0  0  0
  1  2  1  0
  2  3  1  0
  3  4  2  0
  4  5  1  0
  5  6  2  0
  6  7  1  0
  2  8  2  0
  8  9  1  0
  9 10  2  0
 10 11  1  0
 11 12  2  3
 12 13  1  0
 13 14  1  0
 14 15  1  0
 15 16  2  0
 15 17  2  0
 15 18  1  0
 18 19  1  0
 10 20  1  0
 20 21  1  0
 21 22  1  0
 22 23  1  0
 23 24  1  0
 11  1  1  0
  7  3  1  0
 24  9  1  0
  1 25  1  0
  4 26  1  0
  5 27  1  0
  6 28  1  0
 13 29  1  0
 13 30  1  0
 14 31  1  0
 14 32  1  0
 18 33  1  0
 19 34  1  0
 19 35  1  0
 19 36  1  0
 20 37  1  0
 20 38  1  0
 21 39  1  0
 21 40  1  0
 22 41  1  0
 22 42  1  0
 23 43  1  0
 23 44  1  0
 24 45  1  0
 24 46  1  0
M  CHG  1  22   1
M  END
>  <ScrubInfo>  (2) 
{"isomerGroup": 0, "isomerId": 1, "confId": 0, "nr_conformers:": 1, "nr_isomers:": 3}

$$$$
_i2
     RDKit          3D

 46 48  0  0  0  0  0  0  0  0999 V2000
   -2.8003    0.5171   -0.6041 N   0  0  0  0  0  0  0  0  0  0  0  0
   -1.7895    1.4170   -0.8572 C   0  0  0  0  0  0  0  0  0  0  0  0
   -2.0834    2.7680   -1.2867 C   0  0  0  0  0  0  0  0  0  0  0  0
   -1.2787    3.8463   -1.5984 C   0  0  0  0  0  0  0  0  0  0  0  0
   -2.1440    4.9076   -1.9560 C   0  0  0  0  0  0  0  0  0  0  0  0
   -3.4224    4.4152   -1.8419 C   0  0  0  0  0  0  0  0  0  0  0  0
   -3.4002    3.1185   -1.4364 O   0  0  0  0  0  0  0  0  0  0  0  0
   -0.5380    1.0926   -0.7235 N   0  0  0  0  0  0  0  0  0  0  0  0
   -0.2008   -0.1695   -0.3124 C   0  0  0  0  0  0  0  0  0  0  0  0
    1.0170   -0.4660   -0.0001 N   0  0  0  0  0  0  0  0  0  0  0  0
    1.9960    0.6295   -0.1285 C   0  0  0  0  0  0  0  0  0  0  0  0
    3.3838    0.0882    0.1699 C   0  0  0  0  0  0  0  0  0  0  0  0
    4.5759    1.4172    0.0920 S   0  0  0  0  0  6  0  0  0  0  0  0
    4.6614    1.8865   -1.2717 O   0  0  0  0  0  0  0  0  0  0  0  0
    4.3170    2.3142    1.1964 O   0  0  0  0  0  0  0  0  0  0  0  0
    6.0055    0.6413    0.4646 N   0  0  0  0  0  0  0  0  0  0  0  0
    6.5662   -0.3582   -0.4303 C   0  0  0  0  0  0  0  0  0  0  0  0
   -1.2747   -1.2146   -0.2082 C   0  0  0  0  0  0  0  0  0  0  0  0
   -2.5508   -0.8012   -0.3211 C   0  0  0  0  0  0  0  0  0  0  0  0
   -3.7267   -1.7243   -0.1180 C   0  0  0  0  0  0  0  0  0  0  0  0
   -3.7675   -2.3319    1.2886 C   0  0  0  0  0  0  0  0  0  0  0  0
   -2.7811   -3.4502    1.4556 N   0  0  0  0  0  4  0  0  0  0  0  0
   -1.3233   -3.0810    1.4646 C   0  0  0  0  0  0  0  0  0  0  0  0
   -0.8623   -2.6292    0.0841 C   0  0  0  0  0  0  0  0  0  0  0  0
   -3.7432    0.8321   -0.8191 H   0  0  0  0  0  0  0  0  0  0  0  0
   -0.1968    3.8574   -1.5692 H   0  0  0  0  0  0  0  0  0  0  0  0
   -1.8689    5.9085   -2.2602 H   0  0  0  0  0  0  0  0  0  0  0  0
   -4.4031    4.8413   -2.0056 H   0  0  0  0  0  0  0  0  0  0  0  0
    1.9823    1.0438   -1.1444 H   0  0  0  0  0  0  0  0  0  0  0  0
    1.7520    1.4323    0.5781 H   0  0  0  0  0  0  0  0  0  0  0  0
    3.6677   -0.6711   -0.5648 H   0  0  0  0  0  0  0  0  0  0  0  0
    3.4300   -0.3453    1.1738 H   0  0  0  0  0  0  0  0  0  0  0  0
    6.2584    0.6265    1.4516 H   0  0  0  0  0  0  0  0  0  0  0  0
    7.6560   -0.3496   -0.3375 H   0  0  0  0  0  0  0  0  0  0  0  0
    6.3173   -0.1607   -1.4758 H   0  0  0  0  0  0  0  0  0  0  0  0
    6.2053   -1.3519   -0.1526 H   0  0  0  0  0  0  0  0  0  0  0  0
   -4.6574   -1.1612   -0.2645 H   0  0  0  0  0  0  0  0  0  0  0  0
   -3.7252   -2.5091   -0.8845 H   0  0  0  0  0  0  0  0  0  0  0  0
   -4.7490   -2.7833    1.4673 H   0  0  0  0  0  0  0  0  0  0  0  0
   -3.5723   -1.5971    2.0772 H   0  0  0  0  0  0  0  0  0  0  0  0
   -2.9828   -3.9063    2.3571 H   0  0  0  0  0  0  0  0  0  0  0  0
   -2.9504   -4.1781    0.7469 H   0  0  0  0  0  0  0  0  0  0  0  0
   -0.7963   -3.9959    1.7544 H   0  0  0  0  0  0  0  0  0  0  0  0
   -1.1740   -2.3268    2.2448 H   0  0  0  0  0  0  0  0  0  0  0  0
   -1.2542   -3.2956   -0.6951 H   0  0  0  0  0  0  0  0  0  0  0  0
    0.2257   -2.7430    0.0342 H   0  0  0  0  0  0  0  0  0  0  0  0
  1  2  1  0
  2  3  1  0
  3  4  2  0
  4  5  1  0
  5  6  2  0
  6  7  1  0
  2  8  2  0
  8  9  1  0
  9 10  2  3
 10 11  1  0
 11 12  1  0
 12 13  1  0
 13 14  2  0
 13 15  2  0
 13 16  1  0
 16 17  1  0
  9 18  1  0
 18 19  2  0
 19 20  1  0
 20 21  1  0
 21 22  1  0
 22 23  1  0
 23 24  1  0
 19  1  1  0
  7  3  1  0
 24 18  1  0
  1 25  1  0
  4 26  1  0
  5 27  1  0
  6 28  1  0
 11 29  1  0
 11 30  1  0
 12 31  1  0
 12 32  1  0
 16 33  1  0
 17 34  1  0
 17 35  1  0
 17 36  1  0
 20 37  1  0
 20 38  1  0
 21 39  1  0
 21 40  1  0
 22 41  1  0
 22 42  1  0
 23 43  1  0
 23 44  1  0
 24 45  1  0
 24 46  1  0
M  CHG  1  22   1
M  END
>  <ScrubInfo>  (3) 
{"isomerGroup": 0, "isomerId": 2, "confId": 0, "nr_conformers:": 1, "nr_isomers:": 3}

$$$$
